Info: SIMULATION PARAMETERS:
Info: TIMESTEP               2
Info: NUMBER OF STEPS        0
Info: STEPS PER CYCLE        10
Info: PERIODIC CELL BASIS 1  31.4736 0 0
Info: PERIODIC CELL BASIS 2  0 29.7914 0
Info: PERIODIC CELL BASIS 3  0 0 32.1513
Info: PERIODIC CELL CENTER   0 0 0
Info: WRAPPING WATERS AROUND PERIODIC BOUNDARIES ON OUTPUT.
Info: WRAPPING ALL CLUSTERS AROUND PERIODIC BOUNDARIES ON OUTPUT.
Info: FIRST LDB TIMESTEP     50
Info: LAST LDB TIMESTEP     -1
Info: HOM BACKGROUND SCALING 1
Info: PME BACKGROUND SCALING 1
Info: MIN ATOMS PER PATCH    40
Info: EMPTY PATCH LOAD       40 ATOMS
Info: VELOCITY FILE          mobley_7200804_equil.vel
Info: CENTER OF MASS MOVING INITIALLY? NO
Info: DIELECTRIC             1
Info: EXCLUDE                SCALED ONE-FOUR
Info: 1-4 ELECTROSTATICS SCALED BY 0.833333
Info: MODIFIED 1-4 VDW PARAMETERS WILL BE USED
Info: DCD FILENAME           mobley_7200804_prod.dcd
Info: DCD FREQUENCY          100000
Info: DCD FIRST STEP         100000
Info: DCD FILE WILL CONTAIN UNIT CELL DATA
Info: XST FILENAME           mobley_7200804_prod.xst
Info: XST FREQUENCY          100000
Info: NO VELOCITY DCD OUTPUT
Info: NO FORCE DCD OUTPUT
Info: OUTPUT FILENAME        mobley_7200804_prod
Info: BINARY OUTPUT FILES WILL BE USED
Info: RESTART FILENAME       mobley_7200804_prod.restart
Info: RESTART FREQUENCY      100000
Info: BINARY RESTART FILES WILL BE USED
Info: CUTOFF                 9
Info: PAIRLIST DISTANCE      11
Info: PAIRLIST SHRINK RATE   0.01
Info: PAIRLIST GROW RATE     0.01
Info: PAIRLIST TRIGGER       0.3
Info: PAIRLISTS PER CYCLE    2
Info: PAIRLISTS ENABLED
Info: MARGIN                 2
Info: HYDROGEN GROUP CUTOFF  2.5
Info: PATCH DIMENSION        15.5
Info: ENERGY OUTPUT STEPS    100000
Info: ENERGY EVALUATION STEPS    100000
Info: OUTPUT ENERGY PRECISION 4
Info: CROSSTERM ENERGY INCLUDED IN DIHEDRAL
Info: TIMING OUTPUT STEPS    1000000
Info: PRESSURE OUTPUT STEPS  100000
Info: ALCHEMICAL FEP ON
Info: FEP CURRENT LAMBDA VALUE     1
Info: FEP COMPARISON LAMBDA VALUE  0.95
Info: FEP INTRA-ALCHEMICAL NON-BONDED INTERACTIONS WILL BE RETAINED
Info: FEP INTRA-ALCHEMICAL BONDED INTERACTIONS WILL BE RETAINED
Info: FEP VDW SHIFTING COEFFICIENT 5
Info: FEP ELEC. ACTIVE FOR ANNIHILATED PARTICLES BETWEEN LAMBDA = 0 AND LAMBDA = 0.5
Info: FEP ELEC. ACTIVE FOR EXNIHILATED PARTICLES BETWEEN LAMBDA = 0.5 AND LAMBDA = 1
Info: FEP VDW ACTIVE FOR ANNIHILATED PARTICLES BETWEEN LAMBDA = 0 AND LAMBDA = 1
Info: FEP VDW ACTIVE FOR EXNIHILATED PARTICLES BETWEEN LAMBDA = 0 AND LAMBDA = 1
Info: FEP BOND ACTIVE FOR ANNIHILATED PARTICLES BETWEEN LAMBDA = 1 AND LAMBDA = 1
Info: FEP BOND ACTIVE FOR EXNIHILATED PARTICLES BETWEEN LAMBDA = 0 AND LAMBDA = 0
Info: LANGEVIN DYNAMICS ACTIVE
Info: LANGEVIN TEMPERATURE   300
Info: LANGEVIN USING BBK INTEGRATOR
Info: LANGEVIN DAMPING COEFFICIENT IS 1 INVERSE PS
Info: LANGEVIN DYNAMICS APPLIED TO HYDROGENS
Info: LANGEVIN PISTON PRESSURE CONTROL ACTIVE
Info:        TARGET PRESSURE IS 1.01325 BAR
Info:     OSCILLATION PERIOD IS 50 FS
Info:             DECAY TIME IS 25 FS
Info:     PISTON TEMPERATURE IS 300 K
Info:       PRESSURE CONTROL IS GROUP-BASED
Info:    INITIAL STRAIN RATE IS 0.000150547 0.000150547 0.000150547
Info:       CELL FLUCTUATION IS ISOTROPIC
Info: PARTICLE MESH EWALD (PME) ACTIVE
Info: PME TOLERANCE               1e-06
Info: PME EWALD COEFFICIENT       0.348832
Info: PME INTERPOLATION ORDER     4
Info: PME GRID DIMENSIONS         32 32 36
Info: PME MAXIMUM GRID SPACING    1
Info: PME CALCULATION WILL BE PERFORMED ON GPU
Info: FULL ELECTROSTATIC EVALUATION FREQUENCY      2
Info: USING VERLET I (r-RESPA) MTS SCHEME.
Info: C1 SPLITTING OF LONG RANGE ELECTROSTATICS
Info: PLACING ATOMS IN PATCHES BY HYDROGEN GROUPS
Info: RIGID BONDS TO HYDROGEN : ALL
Info:         ERROR TOLERANCE : 1e-08
Info:          MAX ITERATIONS : 100
Info: RIGID WATER USING SETTLE ALGORITHM
Info: RANDOM NUMBER SEED     1742597429
Info: USE HYDROGEN BONDS?    NO
Info: Using AMBER format force field!
Info: AMBER PARM FILE        mobley_7200804.prmtop
Info: COORDINATE PDB         mobley_7200804.pdb
Info: Exclusions will be read from PARM file!
Info: SCNB (VDW SCALING)     2
Info: USING ARITHMETIC MEAN TO COMBINE L-J SIGMA PARAMETERS
Info: BINARY COORDINATES     mobley_7200804_equil.coor
Info: SUMMARY OF PARAMETERS:
Info: 7 BONDS
Info: 5 ANGLES
Info:   5 HARMONIC
Info:   0 COSINE-BASED
Info: 3 DIHEDRAL
Info: 0 IMPROPER
Info: 0 CROSSTERM
Info: 0 VDW
Info: 28 VDW_PAIRS
Info: 0 NBTHOLE_PAIRS
Info: To read alchdata from file: mobley_7200804.pdb
Info: To read alchflag data from column: 5
Info: STRUCTURE SUMMARY:
Info: 2911 ATOMS
Info: 2911 BONDS
Info: 19 ANGLES
Info: 31 DIHEDRALS
Info: 0 IMPROPERS
Info: 0 CROSSTERMS
Info: 2953 EXCLUSIONS
Info: 2903 RIGID BONDS
Info: ALCH: 0 ATOMS TO DISAPPEAR IN FINAL STATE
Info: ALCH: 13 ATOMS TO APPEAR IN FINAL STATE
Info: 5830 DEGREES OF FREEDOM
Info: 974 HYDROGEN GROUPS
Info: 3 ATOMS IN LARGEST HYDROGEN GROUP
Info: 974 MIGRATION GROUPS
Info: 3 ATOMS IN LARGEST MIGRATION GROUP
Info: TOTAL MASS = 17515.6 amu
Info: TOTAL CHARGE = -0.000100017 e
Info: MASS DENSITY = 0.964825 g/cm^3
Info: ATOM DENSITY = 0.0965623 atoms/A^3
Info: ADDED 0 IMPLICIT EXCLUSIONS
Info: NONBONDED TABLE R-SQUARED SPACING: 0.0625
Info: NONBONDED TABLE SIZE: 705 POINTS
Info: REMOVING COM VELOCITY -0.0625663 -0.0415192 0.0938376
Info: Use 3D box decompostion in PME FFT.
Info: Updated CUDA force table with 4096 elements.
Info: Updated CUDA LJ table with 7 x 7 elements.
Info: Found 15 unique exclusion lists needing 28 bytes
TCL: Running for 1500000 steps
ETITLE: TS BOND ANGLE DIHED IMPRP ELECT VDW BOUNDARY MISC KINETIC TOTAL TEMP POTENTIAL TOTALAVG TEMPAVG PRESSURE GPRESSURE VOLUME PRESSAVG GPRESSAVG
ENERGY: 0 0.9650 3.4584 4.9513 0.0000 -10429.4824 1332.5420 0.0000 0.0000 1693.3516 -7394.2141 292.3270 -9087.5657 -7394.2141 292.3270 -517.3546 -419.2320 30146.3489 -517.3546 -419.2320
ENERGY: 300000 1.3707 3.7360 4.2963 0.0000 -10482.9085 1359.9460 0.0000 0.0000 1677.7434 -7435.8162 289.6325 -9113.5595 -7418.5508 293.1393 -405.8341 -289.4897 29859.9034 -403.9209 -320.0322
ENERGY: 600000 6.2795 5.7228 2.6078 0.0000 -10482.7417 1397.7056 0.0000 0.0000 1704.9692 -7365.4568 294.3326 -9070.4260 -7415.2027 295.4800 -222.3933 -208.9347 30338.9061 -368.3257 -303.2699
ENERGY: 900000 2.7033 3.4461 3.9352 0.0000 -10590.4514 1411.0275 0.0000 0.0000 1771.7961 -7397.5433 305.8691 -9169.3394 -7404.0008 298.0083 -139.2733 -81.9343 30075.3074 -257.8674 -197.5842
ENERGY: 1200000 3.1226 2.4887 2.2558 0.0000 -10485.0107 1361.4242 0.0000 0.0000 1740.6217 -7375.0976 300.4874 -9115.7193 -7401.5941 299.1943 -723.2070 -641.7597 30579.4493 -268.4053 -200.4670
ENERGY: 1500000 4.2687 3.1068 1.7790 0.0000 -10586.9926 1398.0335 0.0000 0.0000 1808.7507 -7371.0538 312.2486 -9179.8045 -7396.8748 300.2313 -150.0770 -100.8311 29630.7627 -204.9105 -137.5678
TCL: Running FEP window   2: Lambda1 0.95   Lambda2 0.8999999999999999 [dLambda -0.050000000000000044]
TCL: Setting parameter firsttimestep to 0
TCL: Setting parameter alchLambda to 0.95
Info: NONBONDED TABLE R-SQUARED SPACING: 0.0625
Info: NONBONDED TABLE SIZE: 705 POINTS
TCL: Setting parameter alchLambda2 to 0.8999999999999999
Info: NONBONDED TABLE R-SQUARED SPACING: 0.0625
Info: NONBONDED TABLE SIZE: 705 POINTS
TCL: Running for 1500000 steps
ETITLE: TS BOND ANGLE DIHED IMPRP ELECT VDW BOUNDARY MISC KINETIC TOTAL TEMP POTENTIAL TOTALAVG TEMPAVG PRESSURE GPRESSURE VOLUME PRESSAVG GPRESSAVG
ENERGY: 0 4.2687 3.1068 1.7790 0.0000 -10585.0154 1396.5529 0.0000 0.0000 1807.8516 -7371.4564 312.0934 -9179.3080 -7371.4564 312.0934 -210.9600 -126.1297 29630.7627 -210.9600 -126.1297
ENERGY: 300000 4.0775 1.7945 4.4874 0.0000 -10644.9279 1506.1886 0.0000 0.0000 1777.5571 -7350.8228 306.8636 -9128.3799 -7379.6291 304.4246 637.4910 785.7947 29892.2870 257.3489 336.7168
ENERGY: 600000 2.7900 4.9708 1.2623 0.0000 -10527.5598 1362.7143 0.0000 0.0000 1751.5110 -7404.3114 302.3672 -9155.8223 -7403.4289 301.7558 -769.9591 -751.2913 30477.9731 57.1355 123.6972
ENERGY: 900000 2.4273 1.3647 2.8098 0.0000 -10636.1236 1436.9233 0.0000 0.0000 1760.0797 -7432.5188 303.8465 -9192.5985 -7393.9767 302.4347 -24.8418 1.4081 29988.2523 50.5496 109.9709
ENERGY: 1200000 4.6460 2.0952 3.0814 0.0000 -10680.6667 1444.7097 0.0000 0.0000 1774.1868 -7451.9476 306.2818 -9226.1343 -7386.5652 302.1643 132.7707 194.9535 29649.2850 24.4931 84.4673
ENERGY: 1500000 1.4710 3.6651 3.2760 0.0000 -10636.8216 1439.9607 0.0000 0.0000 1733.9058 -7454.5429 299.3280 -9188.4487 -7381.7524 301.8070 331.3546 390.1050 29712.7267 45.5222 104.9884
TCL: Running FEP window   3: Lambda1 0.8999999999999999 Lambda2 0.8499999999999999 [dLambda -0.050000000000000044]
TCL: Setting parameter firsttimestep to 0
TCL: Setting parameter alchLambda to 0.8999999999999999
Info: NONBONDED TABLE R-SQUARED SPACING: 0.0625
Info: NONBONDED TABLE SIZE: 705 POINTS
TCL: Setting parameter alchLambda2 to 0.8499999999999999
Info: NONBONDED TABLE R-SQUARED SPACING: 0.0625
Info: NONBONDED TABLE SIZE: 705 POINTS
TCL: Running for 1500000 steps
ETITLE: TS BOND ANGLE DIHED IMPRP ELECT VDW BOUNDARY MISC KINETIC TOTAL TEMP POTENTIAL TOTALAVG TEMPAVG PRESSURE GPRESSURE VOLUME PRESSAVG GPRESSAVG
ENERGY: 0 1.4710 3.6651 3.2760 0.0000 -10635.8528 1439.1428 0.0000 0.0000 1733.0631 -7455.2347 299.1825 -9188.2978 -7455.2347 299.1825 287.9322 369.5608 29712.7267 287.9322 369.5608
ENERGY: 300000 1.2022 2.7794 4.0571 0.0000 -10580.0961 1428.5715 0.0000 0.0000 1787.9620 -7355.5238 308.6598 -9143.4858 -7391.5029 300.1544 24.9533 138.3049 29947.6485 126.1923 207.5127
ENERGY: 600000 3.2955 1.1629 4.1874 0.0000 -10498.3251 1376.1028 0.0000 0.0000 1763.9478 -7349.6286 304.5142 -9113.5764 -7404.9901 300.3747 -490.3330 -404.1983 30416.8721 -55.2269 20.9179
ENERGY: 900000 2.3488 3.3306 2.4761 0.0000 -10584.8343 1433.7232 0.0000 0.0000 1811.1067 -7331.8489 312.6553 -9142.9556 -7409.3328 301.4127 247.5207 347.8879 29694.7123 73.4502 138.9166
ENERGY: 1200000 2.7608 1.9188 3.1452 0.0000 -10615.5477 1486.3804 0.0000 0.0000 1722.2918 -7399.0508 297.3230 -9121.3426 -7415.6852 301.4196 474.6553 599.0629 29880.8122 114.0717 183.9579
ENERGY: 1500000 0.8826 2.9152 2.2882 0.0000 -10632.9171 1428.2255 0.0000 0.0000 1698.8352 -7499.7703 293.2737 -9198.6055 -7416.7542 300.8740 -183.8994 -144.7474 30190.1096 68.5941 131.8874
TCL: Running FEP window   4: Lambda1 0.8499999999999999 Lambda2 0.7999999999999998 [dLambda -0.050000000000000044]
TCL: Setting parameter firsttimestep to 0
TCL: Setting parameter alchLambda to 0.8499999999999999
Info: NONBONDED TABLE R-SQUARED SPACING: 0.0625
Info: NONBONDED TABLE SIZE: 705 POINTS
TCL: Setting parameter alchLambda2 to 0.7999999999999998
Info: NONBONDED TABLE R-SQUARED SPACING: 0.0625
Info: NONBONDED TABLE SIZE: 705 POINTS
TCL: Running for 1500000 steps
ETITLE: TS BOND ANGLE DIHED IMPRP ELECT VDW BOUNDARY MISC KINETIC TOTAL TEMP POTENTIAL TOTALAVG TEMPAVG PRESSURE GPRESSURE VOLUME PRESSAVG GPRESSAVG
ENERGY: 0 0.8826 2.9152 2.2882 0.0000 -10630.9660 1427.5317 0.0000 0.0000 1697.9730 -7499.3752 293.1248 -9197.3482 -7499.3752 293.1248 -241.1764 -158.4955 30190.1096 -241.1764 -158.4955
ENERGY: 300000 2.5874 5.4224 3.5381 0.0000 -10505.7586 1425.2430 0.0000 0.0000 1716.5228 -7352.4450 296.3271 -9068.9678 -7425.6919 298.8489 23.5043 105.3374 30224.3836 89.3184 177.4127
ENERGY: 600000 1.0936 4.0500 6.2550 0.0000 -10593.2888 1444.0148 0.0000 0.0000 1753.4570 -7384.4184 302.7032 -9137.8754 -7394.3553 300.1554 428.5197 450.0063 29880.0879 254.3717 326.9925
ENERGY: 900000 2.1203 3.5745 6.6504 0.0000 -10616.1180 1412.0916 0.0000 0.0000 1675.2827 -7516.3986 289.2078 -9191.6813 -7400.7930 298.7623 -304.2805 -269.2409 29953.0405 185.0029 247.7101
ENERGY: 1200000 2.6592 3.5633 2.9372 0.0000 -10617.7954 1491.1274 0.0000 0.0000 1755.7587 -7361.7496 303.1005 -9117.5083 -7385.8690 299.6320 687.9315 768.4514 29842.4501 208.1137 268.6303
ENERGY: 1500000 2.9086 2.2879 3.3519 0.0000 -10575.9991 1428.8819 0.0000 0.0000 1719.6615 -7418.9073 296.8690 -9138.5689 -7385.1202 299.5735 -31.0290 53.3306 30073.4983 197.0415 260.0373
TCL: Running FEP window   5: Lambda1 0.7999999999999998 Lambda2 0.7499999999999998 [dLambda -0.050000000000000044]
TCL: Setting parameter firsttimestep to 0
TCL: Setting parameter alchLambda to 0.7999999999999998
Info: NONBONDED TABLE R-SQUARED SPACING: 0.0625
Info: NONBONDED TABLE SIZE: 705 POINTS
TCL: Setting parameter alchLambda2 to 0.7499999999999998
Info: NONBONDED TABLE R-SQUARED SPACING: 0.0625
Info: NONBONDED TABLE SIZE: 705 POINTS
TCL: Running for 1500000 steps
ETITLE: TS BOND ANGLE DIHED IMPRP ELECT VDW BOUNDARY MISC KINETIC TOTAL TEMP POTENTIAL TOTALAVG TEMPAVG PRESSURE GPRESSURE VOLUME PRESSAVG GPRESSAVG
ENERGY: 0 2.9086 2.2879 3.3519 0.0000 -10574.8215 1429.1158 0.0000 0.0000 1718.7751 -7418.3822 296.7159 -9137.1572 -7418.3822 296.7159 -37.4869 50.0036 30073.4983 -37.4869 50.0036
ENERGY: 300000 3.2384 3.0037 6.3888 0.0000 -10540.1464 1398.8774 0.0000 0.0000 1748.4153 -7380.2229 301.8328 -9128.6382 -7407.8529 297.5920 -124.4076 -49.8803 30065.4583 -115.6311 -44.1229
ENERGY: 600000 0.6396 2.5282 2.7470 0.0000 -10716.5439 1542.2126 0.0000 0.0000 1751.6918 -7416.7247 302.3984 -9168.4165 -7415.7061 297.4309 1197.7575 1241.7310 29367.6239 203.4727 279.8306
ENERGY: 900000 2.4622 3.7309 1.8468 0.0000 -10618.0283 1460.8039 0.0000 0.0000 1761.0767 -7388.1078 304.0186 -9149.1845 -7406.9946 298.7829 231.1053 270.0484 30094.4212 260.0002 329.5802
ENERGY: 1200000 3.6893 1.5289 3.6485 0.0000 -10545.2084 1434.4568 0.0000 0.0000 1695.0473 -7406.8376 292.6198 -9101.8849 -7408.8822 298.3440 69.7365 155.0102 30133.8460 125.5724 196.7149
ENERGY: 1500000 0.6082 3.8894 2.1601 0.0000 -10646.3981 1409.0258 0.0000 0.0000 1729.4946 -7501.2201 298.5665 -9230.7147 -7407.2831 298.3579 -63.9692 -20.6778 29412.0510 -6.7845 64.0237
TCL: Running FEP window   6: Lambda1 0.7499999999999998 Lambda2 0.6999999999999997 [dLambda -0.050000000000000044]
TCL: Setting parameter firsttimestep to 0
TCL: Setting parameter alchLambda to 0.7499999999999998
Info: NONBONDED TABLE R-SQUARED SPACING: 0.0625
Info: NONBONDED TABLE SIZE: 705 POINTS
TCL: Setting parameter alchLambda2 to 0.6999999999999997
Info: NONBONDED TABLE R-SQUARED SPACING: 0.0625
Info: NONBONDED TABLE SIZE: 705 POINTS
TCL: Running for 1500000 steps
ETITLE: TS BOND ANGLE DIHED IMPRP ELECT VDW BOUNDARY MISC KINETIC TOTAL TEMP POTENTIAL TOTALAVG TEMPAVG PRESSURE GPRESSURE VOLUME PRESSAVG GPRESSAVG
ENERGY: 0 0.6082 3.8894 2.1601 0.0000 -10645.8600 1409.0785 0.0000 0.0000 1728.6042 -7501.5197 298.4128 -9230.1239 -7501.5197 298.4128 -119.4669 -27.7456 29412.0510 -119.4669 -27.7456
ENERGY: 300000 2.6115 2.2974 1.5879 0.0000 -10550.2079 1413.1859 0.0000 0.0000 1731.9574 -7398.5678 298.9916 -9130.5252 -7425.0914 300.0356 -115.2512 -51.0325 29978.2863 -17.0571 47.9031
ENERGY: 600000 1.0235 2.6384 6.2235 0.0000 -10660.8260 1454.0664 0.0000 0.0000 1727.6728 -7469.2014 298.2520 -9196.8742 -7422.6705 299.1946 275.9976 266.6541 29629.9903 29.9090 76.5183
ENERGY: 900000 3.0290 3.5188 3.1255 0.0000 -10573.4743 1412.8347 0.0000 0.0000 1689.3851 -7461.5812 291.6423 -9150.9662 -7420.3103 298.5775 -210.2913 -106.9422 29923.2370 54.3438 104.6116
ENERGY: 1200000 1.3832 5.2307 2.6715 0.0000 -10600.1504 1465.5422 0.0000 0.0000 1726.9691 -7398.3536 298.1305 -9125.3227 -7399.6041 298.7279 310.6325 488.0595 29803.5784 3.4031 65.9645
ENERGY: 1500000 4.7711 4.3423 2.6697 0.0000 -10427.1177 1357.6065 0.0000 0.0000 1667.5584 -7390.1697 287.8743 -9057.7281 -7397.9816 298.1296 -923.9183 -822.6476 30863.1017 -15.8426 48.7159
TCL: Running FEP window   7: Lambda1 0.6999999999999997 Lambda2 0.6499999999999997 [dLambda -0.050000000000000044]
TCL: Setting parameter firsttimestep to 0
TCL: Setting parameter alchLambda to 0.6999999999999997
Info: NONBONDED TABLE R-SQUARED SPACING: 0.0625
Info: NONBONDED TABLE SIZE: 705 POINTS
TCL: Setting parameter alchLambda2 to 0.6499999999999997
Info: NONBONDED TABLE R-SQUARED SPACING: 0.0625
Info: NONBONDED TABLE SIZE: 705 POINTS
TCL: Running for 1500000 steps
ETITLE: TS BOND ANGLE DIHED IMPRP ELECT VDW BOUNDARY MISC KINETIC TOTAL TEMP POTENTIAL TOTALAVG TEMPAVG PRESSURE GPRESSURE VOLUME PRESSAVG GPRESSAVG
ENERGY: 0 4.7711 4.3423 2.6697 0.0000 -10425.9524 1357.6922 0.0000 0.0000 1666.7113 -7389.7659 287.7281 -9056.4772 -7389.7659 287.7281 -891.9863 -828.5735 30863.1017 -891.9863 -828.5735
ENERGY: 300000 2.0468 1.4903 2.6620 0.0000 -10645.3554 1504.5014 0.0000 0.0000 1750.3107 -7384.3443 302.1600 -9134.6550 -7388.5819 298.3693 756.1919 792.0092 29988.5823 114.2843 185.9138
ENERGY: 600000 5.2373 2.1439 2.8211 0.0000 -10582.2715 1394.2461 0.0000 0.0000 1729.6876 -7448.1355 298.5998 -9177.8231 -7387.9799 297.7193 -706.5543 -711.0753 30331.8011 4.5572 57.1271
ENERGY: 900000 1.5913 3.2398 4.4896 0.0000 -10514.5226 1397.7905 0.0000 0.0000 1696.9847 -7410.4268 292.9542 -9107.4115 -7398.4381 297.6411 -39.4428 40.6947 29860.3118 72.0843 128.5295
ENERGY: 1200000 1.7537 3.3090 3.9294 0.0000 -10522.3797 1410.5085 0.0000 0.0000 1720.9513 -7381.9278 297.0916 -9102.8791 -7390.7034 298.4364 30.6801 54.8575 29957.3334 45.6908 98.3992
ENERGY: 1500000 5.9782 5.0426 3.6086 0.0000 -10483.9443 1395.2705 0.0000 0.0000 1696.8086 -7377.2358 292.9238 -9074.0444 -7382.0447 298.1304 -407.4971 -335.5813 30587.3860 12.0094 65.5944
TCL: Running FEP window   8: Lambda1 0.6499999999999997 Lambda2 0.5999999999999996 [dLambda -0.050000000000000044]
TCL: Setting parameter firsttimestep to 0
TCL: Setting parameter alchLambda to 0.6499999999999997
Info: NONBONDED TABLE R-SQUARED SPACING: 0.0625
Info: NONBONDED TABLE SIZE: 705 POINTS
TCL: Setting parameter alchLambda2 to 0.5999999999999996
Info: NONBONDED TABLE R-SQUARED SPACING: 0.0625
Info: NONBONDED TABLE SIZE: 705 POINTS
TCL: Running for 1500000 steps
ETITLE: TS BOND ANGLE DIHED IMPRP ELECT VDW BOUNDARY MISC KINETIC TOTAL TEMP POTENTIAL TOTALAVG TEMPAVG PRESSURE GPRESSURE VOLUME PRESSAVG GPRESSAVG
ENERGY: 0 5.9782 5.0426 3.6086 0.0000 -10482.1818 1395.0119 0.0000 0.0000 1695.9095 -7376.6310 292.7686 -9072.5405 -7376.6310 292.7686 -418.7728 -337.2294 30587.3860 -418.7728 -337.2294
ENERGY: 300000 1.1911 2.8538 2.5675 0.0000 -10672.1168 1464.5966 0.0000 0.0000 1743.4919 -7457.4159 300.9829 -9200.9078 -7399.0700 300.8094 248.5377 344.2595 29743.8834 -58.0233 35.2186
ENERGY: 600000 3.4599 3.2590 7.2106 0.0000 -10557.5807 1397.7152 0.0000 0.0000 1727.9282 -7418.0078 298.2961 -9145.9360 -7407.8023 299.4677 -456.0059 -404.9401 30104.4883 -223.8432 -137.0030
ENERGY: 900000 1.0611 1.2896 6.7269 0.0000 -10655.1698 1531.6224 0.0000 0.0000 1774.4456 -7340.0242 306.3265 -9114.4698 -7397.3901 299.8612 774.2970 849.4015 30245.3027 -148.4207 -78.6469
ENERGY: 1200000 1.8197 1.3552 3.2090 0.0000 -10468.2954 1383.3157 0.0000 0.0000 1722.1030 -7356.4929 297.2905 -9078.5959 -7377.0676 300.8621 -307.7310 -246.1899 30071.6908 -173.4257 -111.4164
ENERGY: 1500000 3.4527 5.7084 3.5642 0.0000 -10489.4289 1350.1253 0.0000 0.0000 1729.4427 -7397.1356 298.5575 -9126.5783 -7373.5530 301.2312 -414.2677 -363.9317 29909.0547 -96.6605 -35.9703
TCL: Running FEP window   9: Lambda1 0.5999999999999996 Lambda2 0.5499999999999996 [dLambda -0.050000000000000044]
TCL: Setting parameter firsttimestep to 0
TCL: Setting parameter alchLambda to 0.5999999999999996
Info: NONBONDED TABLE R-SQUARED SPACING: 0.0625
Info: NONBONDED TABLE SIZE: 705 POINTS
TCL: Setting parameter alchLambda2 to 0.5499999999999996
Info: NONBONDED TABLE R-SQUARED SPACING: 0.0625
Info: NONBONDED TABLE SIZE: 705 POINTS
TCL: Running for 1500000 steps
ETITLE: TS BOND ANGLE DIHED IMPRP ELECT VDW BOUNDARY MISC KINETIC TOTAL TEMP POTENTIAL TOTALAVG TEMPAVG PRESSURE GPRESSURE VOLUME PRESSAVG GPRESSAVG
ENERGY: 0 3.4527 5.7084 3.5642 0.0000 -10487.5759 1349.5089 0.0000 0.0000 1728.5482 -7396.7935 298.4031 -9125.3417 -7396.7935 298.4031 -460.5728 -373.5734 29909.0547 -460.5728 -373.5734
ENERGY: 300000 0.9992 6.0146 3.7843 0.0000 -10584.8391 1475.7019 0.0000 0.0000 1733.2347 -7365.1044 299.2121 -9098.3391 -7362.5077 299.0999 487.7302 520.0712 29837.1769 -261.8529 -242.2711
ENERGY: 600000 6.6871 2.4845 1.6573 0.0000 -10479.0705 1393.6674 0.0000 0.0000 1733.0429 -7341.5313 299.1790 -9074.5742 -7359.5012 297.9005 -561.0496 -503.4067 30432.5985 -216.4014 -186.0515
ENERGY: 900000 2.9635 2.7790 4.1843 0.0000 -10649.9120 1445.2980 0.0000 0.0000 1739.4037 -7455.2834 300.2771 -9194.6872 -7383.3255 297.8797 -62.7357 -67.7857 29798.7180 -197.5522 -156.8169
ENERGY: 1200000 2.1372 1.9315 7.9933 0.0000 -10481.3251 1349.2471 0.0000 0.0000 1714.9625 -7405.0535 296.0578 -9120.0160 -7387.1925 297.4564 -661.5750 -551.7985 30109.2273 -226.4176 -181.9234
ENERGY: 1500000 1.9656 1.1219 3.3171 0.0000 -10522.1907 1377.0274 0.0000 0.0000 1753.7593 -7384.9993 302.7553 -9138.7586 -7379.7823 297.9976 -296.5049 -273.2445 29895.9902 -227.6614 -182.6034
TCL: Running FEP window  10: Lambda1 0.5499999999999996 Lambda2 0.4999999999999996 [dLambda -0.04999999999999999]
TCL: Setting parameter firsttimestep to 0
TCL: Setting parameter alchLambda to 0.5499999999999996
Info: NONBONDED TABLE R-SQUARED SPACING: 0.0625
Info: NONBONDED TABLE SIZE: 705 POINTS
TCL: Setting parameter alchLambda2 to 0.4999999999999996
Info: NONBONDED TABLE R-SQUARED SPACING: 0.0625
Info: NONBONDED TABLE SIZE: 705 POINTS
TCL: Running for 1500000 steps
ETITLE: TS BOND ANGLE DIHED IMPRP ELECT VDW BOUNDARY MISC KINETIC TOTAL TEMP POTENTIAL TOTALAVG TEMPAVG PRESSURE GPRESSURE VOLUME PRESSAVG GPRESSAVG
ENERGY: 0 1.9656 1.1219 3.3171 0.0000 -10521.8656 1376.9247 0.0000 0.0000 1752.8725 -7385.6639 302.6022 -9138.5363 -7385.6639 302.6022 -354.8198 -281.3214 29895.9902 -354.8198 -281.3214
ENERGY: 300000 2.0138 3.9411 5.1980 0.0000 -10379.4637 1243.8670 0.0000 0.0000 1735.7376 -7388.7062 299.6442 -9124.4439 -7376.9988 302.7394 -1438.1798 -1342.6331 29953.1072 -261.4370 -189.2322
ENERGY: 600000 4.1807 2.3021 0.9834 0.0000 -10640.0096 1451.9709 0.0000 0.0000 1738.6260 -7441.9464 300.1429 -9180.5725 -7375.2294 301.3702 20.3130 67.0972 29691.8302 -159.4834 -92.2638
ENERGY: 900000 1.2072 1.4748 3.7157 0.0000 -10554.3924 1429.4308 0.0000 0.0000 1682.7947 -7435.7691 290.5046 -9118.5638 -7389.4650 299.8104 -173.2437 -77.3843 30212.1576 -106.4511 -36.0162
ENERGY: 1200000 2.4441 2.1567 1.4394 0.0000 -10575.1739 1480.0726 0.0000 0.0000 1728.8107 -7360.2505 298.4484 -9089.0612 -7389.4613 299.3436 720.3677 832.5793 29595.8245 86.9628 156.0234
ENERGY: 1500000 1.5657 2.9191 2.2991 0.0000 -10606.0737 1364.9984 0.0000 0.0000 1757.8655 -7476.4259 303.4642 -9234.2914 -7393.8931 300.0759 -765.2987 -731.1316 29794.0968 42.8274 112.9640
TCL: Running FEP window  11: Lambda1 0.4999999999999996 Lambda2 0.4499999999999996 [dLambda -0.04999999999999999]
TCL: Setting parameter firsttimestep to 0
TCL: Setting parameter alchLambda to 0.4999999999999996
Info: NONBONDED TABLE R-SQUARED SPACING: 0.0625
Info: NONBONDED TABLE SIZE: 705 POINTS
TCL: Setting parameter alchLambda2 to 0.4499999999999996
Info: NONBONDED TABLE R-SQUARED SPACING: 0.0625
Info: NONBONDED TABLE SIZE: 705 POINTS
TCL: Running for 1500000 steps
ETITLE: TS BOND ANGLE DIHED IMPRP ELECT VDW BOUNDARY MISC KINETIC TOTAL TEMP POTENTIAL TOTALAVG TEMPAVG PRESSURE GPRESSURE VOLUME PRESSAVG GPRESSAVG
ENERGY: 0 1.5657 2.9191 2.2991 0.0000 -10606.4677 1365.3145 0.0000 0.0000 1757.0154 -7477.3539 303.3175 -9234.3693 -7477.3539 303.3175 -824.7211 -737.0167 29794.0968 -824.7211 -737.0167
ENERGY: 300000 2.1731 2.8772 1.2766 0.0000 -10566.7205 1401.2259 0.0000 0.0000 1732.5487 -7426.6190 299.0937 -9159.1677 -7423.8964 299.3691 -262.2959 -194.0964 29782.3188 -448.6621 -386.6648
ENERGY: 600000 2.5574 1.6062 1.6084 0.0000 -10532.6480 1376.5133 0.0000 0.0000 1782.8326 -7367.5301 307.7743 -9150.3628 -7406.4048 301.1404 -253.4509 -222.6965 29740.3469 -176.3162 -123.1291
ENERGY: 900000 1.9177 3.8462 3.9270 0.0000 -10476.1998 1372.9589 0.0000 0.0000 1765.9690 -7327.5810 304.8631 -9093.5499 -7397.8994 301.0365 -613.2889 -529.6128 30345.2042 -240.3842 -176.2790
ENERGY: 1200000 3.5130 4.2590 0.8415 0.0000 -10521.7073 1449.4917 0.0000 0.0000 1741.3551 -7322.2470 300.6140 -9063.6021 -7383.0644 300.9798 273.3007 328.6252 30088.5385 -142.6871 -84.8769
ENERGY: 1500000 3.1166 7.2847 3.1167 0.0000 -10486.2469 1394.4415 0.0000 0.0000 1705.3505 -7372.9371 294.3984 -9078.2876 -7384.2470 300.3911 -328.3939 -246.0109 30432.7820 -190.9640 -134.6270
TCL: Running FEP window  12: Lambda1 0.4499999999999996 Lambda2 0.39999999999999963 [dLambda -0.04999999999999999]
TCL: Setting parameter firsttimestep to 0
TCL: Setting parameter alchLambda to 0.4499999999999996
Info: NONBONDED TABLE R-SQUARED SPACING: 0.0625
Info: NONBONDED TABLE SIZE: 705 POINTS
TCL: Setting parameter alchLambda2 to 0.39999999999999963
Info: NONBONDED TABLE R-SQUARED SPACING: 0.0625
Info: NONBONDED TABLE SIZE: 705 POINTS
TCL: Running for 1500000 steps
ETITLE: TS BOND ANGLE DIHED IMPRP ELECT VDW BOUNDARY MISC KINETIC TOTAL TEMP POTENTIAL TOTALAVG TEMPAVG PRESSURE GPRESSURE VOLUME PRESSAVG GPRESSAVG
ENERGY: 0 3.1166 7.2847 3.1167 0.0000 -10486.2459 1394.1698 0.0000 0.0000 1704.4674 -7374.0908 294.2460 -9078.5582 -7374.0908 294.2460 -337.0957 -255.2578 30432.7820 -337.0957 -255.2578
ENERGY: 300000 1.8314 4.1672 3.2920 0.0000 -10560.2863 1445.9870 0.0000 0.0000 1747.8212 -7357.1874 301.7302 -9105.0086 -7356.9182 300.6008 331.1534 382.8870 29637.0347 34.3278 119.3530
ENERGY: 600000 0.9001 3.1086 1.0828 0.0000 -10727.3875 1450.4116 0.0000 0.0000 1829.4169 -7442.4674 315.8163 -9271.8843 -7353.8614 304.2081 151.8568 232.2755 29550.1184 86.7795 156.6627
ENERGY: 900000 2.1199 0.8653 2.8506 0.0000 -10549.3882 1349.9644 0.0000 0.0000 1766.2842 -7427.3038 304.9175 -9193.5880 -7371.1814 302.8539 -767.1208 -695.1751 29786.3755 -3.5885 67.1419
ENERGY: 1200000 5.9449 1.4815 6.1357 0.0000 -10658.3618 1453.2317 0.0000 0.0000 1721.3155 -7470.2525 297.1545 -9191.5680 -7383.7492 302.4750 102.7227 154.2724 29831.2868 40.3032 109.0714
ENERGY: 1500000 3.9272 4.4436 3.4166 0.0000 -10561.1151 1490.5133 0.0000 0.0000 1733.9395 -7324.8748 299.3338 -9058.8144 -7388.1358 301.6479 374.3790 385.1401 30410.3788 8.8228 71.6386
TCL: Running FEP window  13: Lambda1 0.39999999999999963 Lambda2 0.34999999999999964 [dLambda -0.04999999999999999]
TCL: Setting parameter firsttimestep to 0
TCL: Setting parameter alchLambda to 0.39999999999999963
Info: NONBONDED TABLE R-SQUARED SPACING: 0.0625
Info: NONBONDED TABLE SIZE: 705 POINTS
TCL: Setting parameter alchLambda2 to 0.34999999999999964
Info: NONBONDED TABLE R-SQUARED SPACING: 0.0625
Info: NONBONDED TABLE SIZE: 705 POINTS
TCL: Running for 1500000 steps
ETITLE: TS BOND ANGLE DIHED IMPRP ELECT VDW BOUNDARY MISC KINETIC TOTAL TEMP POTENTIAL TOTALAVG TEMPAVG PRESSURE GPRESSURE VOLUME PRESSAVG GPRESSAVG
ENERGY: 0 3.9272 4.4436 3.4166 0.0000 -10561.1161 1490.7626 0.0000 0.0000 1733.0745 -7325.4916 299.1845 -9058.5661 -7325.4916 299.1845 298.7494 382.6140 30410.3788 298.7494 382.6140
ENERGY: 300000 1.8273 1.7684 2.0755 0.0000 -10463.3207 1445.7999 0.0000 0.0000 1716.6036 -7295.2460 296.3411 -9011.8496 -7305.0827 300.9653 514.6405 629.9931 29895.8590 28.5152 119.0169
ENERGY: 600000 3.8326 2.9424 1.5009 0.0000 -10610.2591 1495.5002 0.0000 0.0000 1732.6746 -7373.8084 299.1155 -9106.4830 -7334.0026 299.9256 624.9188 646.2677 29796.5419 79.7829 155.8128
ENERGY: 900000 1.6303 4.3609 2.8352 0.0000 -10749.3656 1518.0514 0.0000 0.0000 1755.8494 -7466.6384 303.1162 -9222.4878 -7356.9341 300.5078 674.3806 698.0477 29465.3102 162.0494 232.3768
ENERGY: 1200000 8.5971 2.9500 4.3562 0.0000 -10544.9915 1353.4419 0.0000 0.0000 1761.0552 -7414.5911 304.0148 -9175.6463 -7364.4114 300.7353 -570.4775 -507.7332 29596.4849 78.7317 144.5471
ENERGY: 1500000 1.1910 3.9894 2.3533 0.0000 -10676.1540 1474.8217 0.0000 0.0000 1777.3633 -7416.4352 306.8302 -9193.7985 -7363.5340 300.8591 217.6924 256.5465 29828.3847 110.4761 176.8797
TCL: Running FEP window  14: Lambda1 0.34999999999999964 Lambda2 0.29999999999999966 [dLambda -0.04999999999999999]
TCL: Setting parameter firsttimestep to 0
TCL: Setting parameter alchLambda to 0.34999999999999964
Info: NONBONDED TABLE R-SQUARED SPACING: 0.0625
Info: NONBONDED TABLE SIZE: 705 POINTS
TCL: Setting parameter alchLambda2 to 0.29999999999999966
Info: NONBONDED TABLE R-SQUARED SPACING: 0.0625
Info: NONBONDED TABLE SIZE: 705 POINTS
TCL: Running for 1500000 steps
ETITLE: TS BOND ANGLE DIHED IMPRP ELECT VDW BOUNDARY MISC KINETIC TOTAL TEMP POTENTIAL TOTALAVG TEMPAVG PRESSURE GPRESSURE VOLUME PRESSAVG GPRESSAVG
ENERGY: 0 1.1910 3.9894 2.3533 0.0000 -10676.1522 1475.1855 0.0000 0.0000 1776.5194 -7416.9135 306.6845 -9193.4330 -7416.9135 306.6845 182.5902 255.2297 29828.3847 182.5902 255.2297
ENERGY: 300000 0.9271 2.3535 0.9205 0.0000 -10805.7136 1576.7207 0.0000 0.0000 1781.8622 -7442.9296 307.6068 -9224.7918 -7444.1975 299.6683 1313.7787 1413.2557 28999.8370 81.5811 163.5023
ENERGY: 600000 1.3092 3.3767 3.5284 0.0000 -10717.8505 1512.1287 0.0000 0.0000 1764.5903 -7432.9172 304.6251 -9197.5075 -7420.4737 300.3551 579.2947 624.0819 29784.0376 42.0421 105.0474
ENERGY: 900000 2.8460 2.5903 2.6223 0.0000 -10536.1339 1395.8666 0.0000 0.0000 1750.4999 -7381.7088 302.1927 -9132.2087 -7408.5688 300.3007 -150.1145 -47.6137 29698.7894 -205.7541 -130.6093
ENERGY: 1200000 6.2355 4.8138 2.0713 0.0000 -10484.8160 1363.7451 0.0000 0.0000 1783.5081 -7324.4422 307.8909 -9107.9503 -7402.0653 301.2922 -713.2347 -672.0877 30115.4922 -230.5813 -163.3121
ENERGY: 1500000 4.2559 1.8927 1.2780 0.0000 -10465.9429 1359.4897 0.0000 0.0000 1751.5759 -7347.4508 302.3784 -9099.0267 -7386.6041 301.5786 -723.7718 -658.9495 30341.3504 -187.8950 -125.0334
TCL: Running FEP window  15: Lambda1 0.29999999999999966 Lambda2 0.24999999999999967 [dLambda -0.04999999999999999]
TCL: Setting parameter firsttimestep to 0
TCL: Setting parameter alchLambda to 0.29999999999999966
Info: NONBONDED TABLE R-SQUARED SPACING: 0.0625
Info: NONBONDED TABLE SIZE: 705 POINTS
TCL: Setting parameter alchLambda2 to 0.24999999999999967
Info: NONBONDED TABLE R-SQUARED SPACING: 0.0625
Info: NONBONDED TABLE SIZE: 705 POINTS
TCL: Running for 1500000 steps
ETITLE: TS BOND ANGLE DIHED IMPRP ELECT VDW BOUNDARY MISC KINETIC TOTAL TEMP POTENTIAL TOTALAVG TEMPAVG PRESSURE GPRESSURE VOLUME PRESSAVG GPRESSAVG
ENERGY: 0 4.2559 1.8927 1.2780 0.0000 -10465.9432 1359.8940 0.0000 0.0000 1750.6976 -7347.9251 302.2268 -9098.6227 -7347.9251 302.2268 -724.7907 -657.5442 30341.3504 -724.7907 -657.5442
ENERGY: 300000 2.6502 4.0230 3.7465 0.0000 -10597.2214 1416.2692 0.0000 0.0000 1724.6330 -7445.8996 297.7272 -9170.5326 -7376.5855 300.4264 -417.7756 -348.7801 30078.7858 -413.8816 -351.1680
ENERGY: 600000 3.9210 3.5976 2.9329 0.0000 -10494.7811 1436.6481 0.0000 0.0000 1720.8177 -7326.8637 297.0686 -9047.6814 -7360.7425 297.8260 349.0703 460.7332 29658.2199 -190.9339 -123.2683
ENERGY: 900000 0.8050 3.9554 2.5781 0.0000 -10673.6295 1522.8730 0.0000 0.0000 1771.0143 -7372.4037 305.7341 -9143.4181 -7366.5207 298.9052 936.2609 956.9172 29558.9287 -90.6314 -31.0119
ENERGY: 1200000 2.2657 2.1552 2.4300 0.0000 -10593.6008 1450.0361 0.0000 0.0000 1749.7342 -7386.9795 302.0605 -9136.7137 -7360.3691 299.6021 -69.6600 -12.4269 30330.9229 -155.3923 -90.6638
ENERGY: 1500000 1.6822 2.7768 2.6146 0.0000 -10459.3494 1397.5760 0.0000 0.0000 1725.5609 -7329.1390 297.8874 -9054.6999 -7360.9715 299.8636 -71.1149 56.2011 30048.6415 -135.0847 -68.5839
TCL: Running FEP window  16: Lambda1 0.24999999999999967 Lambda2 0.19999999999999968 [dLambda -0.04999999999999999]
TCL: Setting parameter firsttimestep to 0
TCL: Setting parameter alchLambda to 0.24999999999999967
Info: NONBONDED TABLE R-SQUARED SPACING: 0.0625
Info: NONBONDED TABLE SIZE: 705 POINTS
TCL: Setting parameter alchLambda2 to 0.19999999999999968
Info: NONBONDED TABLE R-SQUARED SPACING: 0.0625
Info: NONBONDED TABLE SIZE: 705 POINTS
TCL: Running for 1500000 steps
ETITLE: TS BOND ANGLE DIHED IMPRP ELECT VDW BOUNDARY MISC KINETIC TOTAL TEMP POTENTIAL TOTALAVG TEMPAVG PRESSURE GPRESSURE VOLUME PRESSAVG GPRESSAVG
ENERGY: 0 1.6822 2.7768 2.6146 0.0000 -10459.3499 1397.8399 0.0000 0.0000 1724.6762 -7329.7602 297.7347 -9054.4364 -7329.7602 297.7347 -37.7504 55.8186 30048.6415 -37.7504 55.8186
ENERGY: 300000 1.7857 4.2875 3.7990 0.0000 -10541.5444 1453.8677 0.0000 0.0000 1750.7907 -7327.0138 302.2429 -9077.8045 -7361.9977 300.2991 368.2510 427.7449 30131.8088 53.1386 125.3849
ENERGY: 600000 3.7806 2.3599 2.6667 0.0000 -10540.1289 1416.3979 0.0000 0.0000 1754.0192 -7360.9046 302.8002 -9114.9237 -7353.4819 301.2680 -21.9436 45.5153 29950.6931 72.1207 134.4356
ENERGY: 900000 7.0797 4.1743 1.7705 0.0000 -10589.7949 1436.6985 0.0000 0.0000 1785.3704 -7354.7016 308.2124 -9140.0720 -7360.7164 301.7556 -202.2624 -126.4534 30016.6388 -113.4050 -46.0586
ENERGY: 1200000 1.9938 3.1673 3.2221 0.0000 -10433.7987 1432.3188 0.0000 0.0000 1769.4031 -7223.6937 305.4560 -8993.0967 -7350.2257 301.5885 186.9385 267.2575 30728.5735 -56.8700 -0.4802
ENERGY: 1500000 4.1529 3.9886 2.1152 0.0000 -10586.5343 1427.4233 0.0000 0.0000 1679.5357 -7469.3187 289.9420 -9148.8544 -7362.7875 300.0765 -217.3981 -96.1588 29865.6946 -68.7050 -7.9703
TCL: Running FEP window  17: Lambda1 0.19999999999999968 Lambda2 0.1499999999999997 [dLambda -0.04999999999999999]
TCL: Setting parameter firsttimestep to 0
TCL: Setting parameter alchLambda to 0.19999999999999968
Info: NONBONDED TABLE R-SQUARED SPACING: 0.0625
Info: NONBONDED TABLE SIZE: 705 POINTS
TCL: Setting parameter alchLambda2 to 0.1499999999999997
Info: NONBONDED TABLE R-SQUARED SPACING: 0.0625
Info: NONBONDED TABLE SIZE: 705 POINTS
TCL: Running for 1500000 steps
ETITLE: TS BOND ANGLE DIHED IMPRP ELECT VDW BOUNDARY MISC KINETIC TOTAL TEMP POTENTIAL TOTALAVG TEMPAVG PRESSURE GPRESSURE VOLUME PRESSAVG GPRESSAVG
ENERGY: 0 4.1529 3.9886 2.1152 0.0000 -10586.5330 1427.7428 0.0000 0.0000 1678.6712 -7469.8624 289.7927 -9148.5336 -7469.8624 289.7927 -190.1369 -97.9292 29865.6946 -190.1369 -97.9292
ENERGY: 300000 3.5917 5.8981 0.8560 0.0000 -10560.4334 1383.8076 0.0000 0.0000 1674.3065 -7491.9734 289.0392 -9166.2799 -7447.8958 297.7982 -508.8284 -515.6324 29740.3059 -83.0148 -26.1774
ENERGY: 600000 3.2198 3.0993 4.4691 0.0000 -10454.5406 1398.8443 0.0000 0.0000 1702.9816 -7341.9266 293.9895 -9044.9082 -7424.0199 296.9540 78.5525 104.7283 29883.5454 -194.6829 -144.3628
ENERGY: 900000 1.0902 1.2564 0.7658 0.0000 -10409.2563 1282.9195 0.0000 0.0000 1721.6592 -7401.5651 297.2138 -9123.2243 -7408.9735 298.4717 -1057.8862 -996.4044 29736.3555 -300.0643 -248.5386
ENERGY: 1200000 4.6850 7.7631 1.8298 0.0000 -10658.8178 1461.3013 0.0000 0.0000 1818.1670 -7365.0715 313.8742 -9183.2385 -7407.7037 299.5633 253.5954 289.9125 29523.0155 -212.3240 -161.7760
ENERGY: 1500000 2.7462 2.6686 3.9752 0.0000 -10562.5746 1412.1713 0.0000 0.0000 1726.8409 -7414.1724 298.1084 -9141.0133 -7407.0369 299.4931 -33.1608 13.5077 29647.3497 -199.5635 -143.8658
TCL: Running FEP window  18: Lambda1 0.1499999999999997 Lambda2 0.09999999999999969 [dLambda -0.05 ]
TCL: Setting parameter firsttimestep to 0
TCL: Setting parameter alchLambda to 0.1499999999999997
Info: NONBONDED TABLE R-SQUARED SPACING: 0.0625
Info: NONBONDED TABLE SIZE: 705 POINTS
TCL: Setting parameter alchLambda2 to 0.09999999999999969
Info: NONBONDED TABLE R-SQUARED SPACING: 0.0625
Info: NONBONDED TABLE SIZE: 705 POINTS
TCL: Running for 1500000 steps
ETITLE: TS BOND ANGLE DIHED IMPRP ELECT VDW BOUNDARY MISC KINETIC TOTAL TEMP POTENTIAL TOTALAVG TEMPAVG PRESSURE GPRESSURE VOLUME PRESSAVG GPRESSAVG
ENERGY: 0 2.7462 2.6686 3.9752 0.0000 -10562.5746 1412.5871 0.0000 0.0000 1725.9782 -7414.6193 297.9594 -9140.5975 -7414.6193 297.9594 -78.5891 12.2055 29647.3497 -78.5891 12.2055
ENERGY: 300000 4.5200 1.6142 2.7694 0.0000 -10468.9202 1360.6212 0.0000 0.0000 1723.7604 -7375.6350 297.5766 -9099.3954 -7371.0664 300.9451 -570.1373 -482.5658 29810.2905 -340.4992 -266.3286
ENERGY: 600000 3.7821 1.5762 2.1835 0.0000 -10727.3060 1546.8716 0.0000 0.0000 1692.0260 -7480.8666 292.0982 -9172.8926 -7393.3584 299.2089 684.4978 756.1381 29923.3057 -202.5108 -148.6200
ENERGY: 900000 0.6655 4.4257 3.7349 0.0000 -10623.7953 1439.1615 0.0000 0.0000 1714.2559 -7461.5518 295.9358 -9175.8077 -7394.3628 299.9772 -40.4635 16.9485 30010.4630 -139.4687 -79.2340
ENERGY: 1200000 2.2566 3.3629 3.0224 0.0000 -10512.8760 1355.8333 0.0000 0.0000 1714.9260 -7433.4747 296.0515 -9148.4007 -7376.2125 300.6561 -673.7607 -663.8325 30084.1209 -172.4618 -121.5080
ENERGY: 1500000 0.4820 3.7516 2.0555 0.0000 -10522.4726 1437.3557 0.0000 0.0000 1731.1141 -7347.7137 298.8460 -9078.8278 -7377.7915 299.7807 72.1120 161.4535 30160.7211 -154.0824 -97.4264
TCL: Running FEP window  19: Lambda1 0.09999999999999969 Lambda2 0.049999999999999684 [dLambda -0.05 ]
TCL: Setting parameter firsttimestep to 0
TCL: Setting parameter alchLambda to 0.09999999999999969
Info: NONBONDED TABLE R-SQUARED SPACING: 0.0625
Info: NONBONDED TABLE SIZE: 705 POINTS
TCL: Setting parameter alchLambda2 to 0.049999999999999684
Info: NONBONDED TABLE R-SQUARED SPACING: 0.0625
Info: NONBONDED TABLE SIZE: 705 POINTS
TCL: Running for 1500000 steps
ETITLE: TS BOND ANGLE DIHED IMPRP ELECT VDW BOUNDARY MISC KINETIC TOTAL TEMP POTENTIAL TOTALAVG TEMPAVG PRESSURE GPRESSURE VOLUME PRESSAVG GPRESSAVG
ENERGY: 0 0.4820 3.7516 2.0555 0.0000 -10522.4730 1437.5190 0.0000 0.0000 1730.2736 -7348.3913 298.7010 -9078.6649 -7348.3913 298.7010 77.4750 159.8119 30160.7211 77.4750 159.8119
ENERGY: 300000 1.7390 4.2439 1.5098 0.0000 -10638.6141 1528.4265 0.0000 0.0000 1770.2614 -7332.4335 305.6041 -9102.6950 -7369.8880 298.9683 862.0160 924.3941 29792.9402 165.3768 203.2438
ENERGY: 600000 3.7329 4.5114 4.4862 0.0000 -10487.3195 1359.3806 0.0000 0.0000 1742.4490 -7372.7594 300.8028 -9115.2083 -7370.1424 300.4120 -466.6687 -407.1450 29925.3540 -55.8287 -16.9745
ENERGY: 900000 1.8650 4.1444 2.2683 0.0000 -10542.3776 1401.6498 0.0000 0.0000 1702.5879 -7429.8620 293.9215 -9132.4500 -7371.0421 299.6823 -98.7263 -35.3330 29676.1287 -35.0624 7.7146
ENERGY: 1200000 2.2942 3.6530 1.1120 0.0000 -10740.0022 1500.3479 0.0000 0.0000 1716.8741 -7515.7210 296.3878 -9232.5951 -7385.4241 299.7897 339.3127 363.3742 29730.5423 33.0382 64.9827
ENERGY: 1500000 3.6923 3.8075 4.5817 0.0000 -10610.7121 1415.5374 0.0000 0.0000 1777.0084 -7406.0849 306.7689 -9183.0933 -7394.2333 300.1876 -382.4055 -244.1466 29921.5028 48.0096 91.9429
TCL: Running FEP window  20: Lambda1 0.049999999999999684 Lambda2 0.0    [dLambda -0.049999999999999684]
TCL: Setting parameter firsttimestep to 0
TCL: Setting parameter alchLambda to 0.049999999999999684
Info: NONBONDED TABLE R-SQUARED SPACING: 0.0625
Info: NONBONDED TABLE SIZE: 705 POINTS
TCL: Setting parameter alchLambda2 to 0.0
Info: NONBONDED TABLE R-SQUARED SPACING: 0.0625
Info: NONBONDED TABLE SIZE: 705 POINTS
TCL: Running for 1500000 steps
ETITLE: TS BOND ANGLE DIHED IMPRP ELECT VDW BOUNDARY MISC KINETIC TOTAL TEMP POTENTIAL TOTALAVG TEMPAVG PRESSURE GPRESSURE VOLUME PRESSAVG GPRESSAVG
ENERGY: 0 3.6923 3.8075 4.5817 0.0000 -10610.7118 1413.6489 0.0000 0.0000 1776.1625 -7408.8190 306.6229 -9184.9815 -7408.8190 306.6229 -354.5262 -250.4382 29921.5028 -354.5262 -250.4382
ENERGY: 300000 2.9682 2.0503 3.7468 0.0000 -10583.3592 1472.0237 0.0000 0.0000 1738.8729 -7363.6973 300.1855 -9102.5702 -7386.1124 300.9448 422.5128 523.5519 29844.1012 72.9223 137.8891
ENERGY: 600000 7.1938 1.7319 4.3497 0.0000 -10528.0088 1381.2022 0.0000 0.0000 1730.5208 -7403.0104 298.7436 -9133.5312 -7401.0214 299.7393 -348.5793 -336.9528 29696.7771 90.1160 147.3758
ENERGY: 900000 1.8564 5.5895 5.6932 0.0000 -10603.4518 1485.8153 0.0000 0.0000 1708.8329 -7395.6645 294.9996 -9104.4975 -7410.2104 299.5080 612.3044 691.4478 29654.9051 143.5912 198.1427
ENERGY: 1200000 5.1484 6.3041 4.6197 0.0000 -10601.8711 1392.9592 0.0000 0.0000 1746.5594 -7446.2804 301.5124 -9192.8397 -7408.7520 299.7529 -380.8819 -313.3690 29741.7103 80.8510 137.2986
ENERGY: 1500000 1.3182 1.3015 2.7652 0.0000 -10441.9250 1385.8894 0.0000 0.0000 1736.6840 -7313.9668 299.8076 -9050.6507 -7400.3784 299.7180 -144.3896 -103.6570 30059.5336 105.6068 158.4974
TCL: Exiting due to exit command.
