Info: SIMULATION PARAMETERS:
Info: TIMESTEP               2
Info: NUMBER OF STEPS        0
Info: STEPS PER CYCLE        10
Info: PERIODIC CELL BASIS 1  34.207 0 0
Info: PERIODIC CELL BASIS 2  0 35.411 0
Info: PERIODIC CELL BASIS 3  0 0 35.897
Info: PERIODIC CELL CENTER   0 0 0
Info: WRAPPING WATERS AROUND PERIODIC BOUNDARIES ON OUTPUT.
Info: WRAPPING ALL CLUSTERS AROUND PERIODIC BOUNDARIES ON OUTPUT.
Info: FIRST LDB TIMESTEP     50
Info: LAST LDB TIMESTEP     -1
Info: HOM BACKGROUND SCALING 1
Info: PME BACKGROUND SCALING 1
Info: MIN ATOMS PER PATCH    40
Info: EMPTY PATCH LOAD       40 ATOMS
Info: INITIAL TEMPERATURE    300
Info: CENTER OF MASS MOVING INITIALLY? NO
Info: DIELECTRIC             1
Info: EXCLUDE                SCALED ONE-FOUR
Info: 1-4 ELECTROSTATICS SCALED BY 0.833333
Info: MODIFIED 1-4 VDW PARAMETERS WILL BE USED
Info: DCD FILENAME           mobley_4039055_equil.dcd
Info: DCD FREQUENCY          100000
Info: DCD FIRST STEP         100000
Info: DCD FILE WILL CONTAIN UNIT CELL DATA
Info: XST FILENAME           mobley_4039055_equil.xst
Info: XST FREQUENCY          100000
Info: NO VELOCITY DCD OUTPUT
Info: NO FORCE DCD OUTPUT
Info: OUTPUT FILENAME        mobley_4039055_equil
Info: BINARY OUTPUT FILES WILL BE USED
Info: RESTART FILENAME       mobley_4039055_equil.restart
Info: RESTART FREQUENCY      100000
Info: BINARY RESTART FILES WILL BE USED
Info: CUTOFF                 9
Info: PAIRLIST DISTANCE      11
Info: PAIRLIST SHRINK RATE   0.01
Info: PAIRLIST GROW RATE     0.01
Info: PAIRLIST TRIGGER       0.3
Info: PAIRLISTS PER CYCLE    2
Info: PAIRLISTS ENABLED
Info: MARGIN                 8
Info: HYDROGEN GROUP CUTOFF  2.5
Info: PATCH DIMENSION        21.5
Info: ENERGY OUTPUT STEPS    100000
Info: ENERGY EVALUATION STEPS    100000
Info: OUTPUT ENERGY PRECISION 4
Info: CROSSTERM ENERGY INCLUDED IN DIHEDRAL
Info: TIMING OUTPUT STEPS    1000000
Info: PRESSURE OUTPUT STEPS  100000
Info: FIXED ATOMS ACTIVE
Info: LANGEVIN DYNAMICS ACTIVE
Info: LANGEVIN TEMPERATURE   30
Info: LANGEVIN USING BBK INTEGRATOR
Info: LANGEVIN DAMPING COEFFICIENT IS 1 INVERSE PS
Info: LANGEVIN DYNAMICS APPLIED TO HYDROGENS
Info: LANGEVIN PISTON PRESSURE CONTROL ACTIVE
Info:        TARGET PRESSURE IS 1.01325 BAR
Info:     OSCILLATION PERIOD IS 50 FS
Info:             DECAY TIME IS 25 FS
Info:     PISTON TEMPERATURE IS 300 K
Info:       PRESSURE CONTROL IS GROUP-BASED
Info:    INITIAL STRAIN RATE IS 0 0 0
Info:       CELL FLUCTUATION IS ISOTROPIC
Info: PARTICLE MESH EWALD (PME) ACTIVE
Info: PME TOLERANCE               1e-06
Info: PME EWALD COEFFICIENT       0.348832
Info: PME INTERPOLATION ORDER     4
Info: PME GRID DIMENSIONS         36 36 36
Info: PME MAXIMUM GRID SPACING    1
Info: FULL ELECTROSTATIC EVALUATION FREQUENCY      2
Info: USING VERLET I (r-RESPA) MTS SCHEME.
Info: C1 SPLITTING OF LONG RANGE ELECTROSTATICS
Info: PLACING ATOMS IN PATCHES BY HYDROGEN GROUPS
Info: RIGID BONDS TO HYDROGEN : ALL
Info:         ERROR TOLERANCE : 1e-08
Info:          MAX ITERATIONS : 100
Info: RIGID WATER USING SETTLE ALGORITHM
Info: RANDOM NUMBER SEED     1742720427
Info: USE HYDROGEN BONDS?    NO
Info: Using AMBER format force field!
Info: AMBER PARM FILE        mobley_4039055.prmtop
Info: COORDINATE PDB         mobley_4039055.pdb
Info: Exclusions will be read from PARM file!
Info: SCNB (VDW SCALING)     2
Info: USING ARITHMETIC MEAN TO COMBINE L-J SIGMA PARAMETERS
Info: BINARY COORDINATES     mobley_4039055_min.coor
Info: SUMMARY OF PARAMETERS:
Info: 10 BONDS
Info: 14 ANGLES
Info:   14 HARMONIC
Info:   0 COSINE-BASED
Info: 7 DIHEDRAL
Info: 0 IMPROPER
Info: 0 CROSSTERM
Info: 0 VDW
Info: 36 VDW_PAIRS
Info: 0 NBTHOLE_PAIRS
Info: STRUCTURE SUMMARY:
Info: 2958 ATOMS
Info: 2958 BONDS
Info: 18 ANGLES
Info: 31 DIHEDRALS
Info: 0 IMPROPERS
Info: 0 CROSSTERMS
Info: 2997 EXCLUSIONS
Info: 12 FIXED ATOMS
Info: 2949 RIGID BONDS
Info: 3 RIGID BONDS BETWEEN FIXED ATOMS
Info: 5892 DEGREES OF FREEDOM
Info: 991 HYDROGEN GROUPS
Info: 3 ATOMS IN LARGEST HYDROGEN GROUP
Info: 991 MIGRATION GROUPS
Info: 3 ATOMS IN LARGEST MIGRATION GROUP
Info: 9 HYDROGEN GROUPS WITH ALL ATOMS FIXED
Info: TOTAL MASS = 17882.7 amu
Info: TOTAL CHARGE = 4.19095e-08 e
Info: MASS DENSITY = 0.682937 g/cm^3
Info: ATOM DENSITY = 0.0680279 atoms/A^3
Info: ADDED 0 IMPLICIT EXCLUSIONS
Info: NONBONDED TABLE R-SQUARED SPACING: 0.0625
Info: NONBONDED TABLE SIZE: 705 POINTS
Info: REMOVING COM VELOCITY 0.177172 -0.0295646 0.205213
TCL: Running for 100000 steps
ETITLE: TS BOND ANGLE DIHED IMPRP ELECT VDW BOUNDARY MISC KINETIC TOTAL TEMP POTENTIAL TOTAL3 TEMPAVG PRESSURE GPRESSURE VOLUME PRESSAVG GPRESSAVG
ENERGY: 0 0.0000 0.0000 0.0000 0.0000 -13900.4700 2414.7174 0.0000 0.0000 1772.9988 -9712.7538 302.8559 -11485.7526 -9712.3953 302.8559 509.7423 544.8534 43482.1825 509.7423 544.8534
ENERGY: 100000 0.0000 0.0000 0.0000 0.0000 -14363.0454 2414.1151 0.0000 0.0000 171.7328 -11777.1975 29.3346 -11948.9303 -11776.6860 30.9199 -463.1867 -404.6274 29063.5208 4.5121 4.5146
TCL: Running 100000 steps at 60 kelvin.
TCL: Setting parameter langevinTemp to 60
TCL: Running for 100000 steps
ETITLE: TS BOND ANGLE DIHED IMPRP ELECT VDW BOUNDARY MISC KINETIC TOTAL TEMP POTENTIAL TOTAL3 TEMPAVG PRESSURE GPRESSURE VOLUME PRESSAVG GPRESSAVG
ENERGY: 100000 0.0000 0.0000 0.0000 0.0000 -14363.0454 2414.1151 0.0000 0.0000 171.6414 -11777.2889 29.3190 -11948.9303 -11776.9275 29.3190 -459.2395 -404.4068 29063.5208 -459.2395 -404.4068
ENERGY: 200000 0.0000 0.0000 0.0000 0.0000 -14434.3475 2510.1240 0.0000 0.0000 357.3971 -11566.8264 61.0490 -11924.2235 -11566.2253 59.9476 592.6825 637.5270 28571.0557 5.3767 5.3157
TCL: Running 100000 steps at 90 kelvin.
TCL: Setting parameter langevinTemp to 90
TCL: Running for 100000 steps
ETITLE: TS BOND ANGLE DIHED IMPRP ELECT VDW BOUNDARY MISC KINETIC TOTAL TEMP POTENTIAL TOTAL3 TEMPAVG PRESSURE GPRESSURE VOLUME PRESSAVG GPRESSAVG
ENERGY: 200000 0.0000 0.0000 0.0000 0.0000 -14434.3475 2510.1240 0.0000 0.0000 357.2209 -11567.0026 61.0189 -11924.2235 -11566.3257 61.0189 592.9749 637.4040 28571.0557 592.9749 637.4040
ENERGY: 300000 0.0000 0.0000 0.0000 0.0000 -14356.4353 2510.8038 0.0000 0.0000 530.2923 -11315.3393 90.5822 -11845.6315 -11313.4091 90.0422 788.8638 840.6541 28661.4035 4.0251 4.0266
TCL: Running 100000 steps at 120 kelvin.
TCL: Setting parameter langevinTemp to 120
TCL: Running for 100000 steps
ETITLE: TS BOND ANGLE DIHED IMPRP ELECT VDW BOUNDARY MISC KINETIC TOTAL TEMP POTENTIAL TOTAL3 TEMPAVG PRESSURE GPRESSURE VOLUME PRESSAVG GPRESSAVG
ENERGY: 300000 0.0000 0.0000 0.0000 0.0000 -14356.4353 2510.8038 0.0000 0.0000 530.0225 -11315.6090 90.5361 -11845.6315 -11314.7145 90.5361 795.7139 841.5687 28661.4035 795.7139 841.5687
ENERGY: 400000 0.0000 0.0000 0.0000 0.0000 -14033.3467 2351.3868 0.0000 0.0000 702.7788 -10979.1811 120.0456 -11681.9599 -10976.5526 119.8599 5.2136 41.5867 29108.9889 3.0466 3.1285
TCL: Running 100000 steps at 150 kelvin.
TCL: Setting parameter langevinTemp to 150
TCL: Running for 100000 steps
ETITLE: TS BOND ANGLE DIHED IMPRP ELECT VDW BOUNDARY MISC KINETIC TOTAL TEMP POTENTIAL TOTAL3 TEMPAVG PRESSURE GPRESSURE VOLUME PRESSAVG GPRESSAVG
ENERGY: 400000 0.0000 0.0000 0.0000 0.0000 -14033.3467 2351.3868 0.0000 0.0000 702.4238 -10979.5361 119.9850 -11681.9599 -10978.1067 119.9850 0.7766 41.7882 29108.9889 0.7766 41.7882
ENERGY: 500000 0.0000 0.0000 0.0000 0.0000 -13667.9906 2170.1946 0.0000 0.0000 847.3499 -10650.4462 144.7406 -11497.7960 -10648.8205 149.9348 -806.3753 -733.0219 29129.8152 4.4548 4.4448
TCL: Running 100000 steps at 180 kelvin.
TCL: Setting parameter langevinTemp to 180
TCL: Running for 100000 steps
ETITLE: TS BOND ANGLE DIHED IMPRP ELECT VDW BOUNDARY MISC KINETIC TOTAL TEMP POTENTIAL TOTAL3 TEMPAVG PRESSURE GPRESSURE VOLUME PRESSAVG GPRESSAVG
ENERGY: 500000 0.0000 0.0000 0.0000 0.0000 -13667.9906 2170.1946 0.0000 0.0000 846.8921 -10650.9039 144.6624 -11497.7960 -10648.8892 144.6624 -790.3429 -734.3551 29129.8152 -790.3429 -734.3551
ENERGY: 600000 0.0000 0.0000 0.0000 0.0000 -13286.9917 2077.4827 0.0000 0.0000 1028.9480 -10180.5610 175.7604 -11209.5090 -10177.6708 180.1272 -328.6108 -260.3960 28932.2861 3.3446 3.5300
TCL: Running 100000 steps at 210 kelvin.
TCL: Setting parameter langevinTemp to 210
TCL: Running for 100000 steps
ETITLE: TS BOND ANGLE DIHED IMPRP ELECT VDW BOUNDARY MISC KINETIC TOTAL TEMP POTENTIAL TOTAL3 TEMPAVG PRESSURE GPRESSURE VOLUME PRESSAVG GPRESSAVG
ENERGY: 600000 0.0000 0.0000 0.0000 0.0000 -13286.9917 2077.4827 0.0000 0.0000 1028.4091 -10181.0999 175.6684 -11209.5090 -10179.4279 175.6684 -322.8619 -259.9785 28932.2861 -322.8619 -259.9785
ENERGY: 700000 0.0000 0.0000 0.0000 0.0000 -12565.4000 1830.0382 0.0000 0.0000 1214.8085 -9520.5534 207.5083 -10735.3618 -9519.7578 209.7909 -398.4451 -388.3293 28865.8336 5.0296 4.8108
TCL: Running 100000 steps at 240 kelvin.
TCL: Setting parameter langevinTemp to 240
TCL: Running for 100000 steps
ETITLE: TS BOND ANGLE DIHED IMPRP ELECT VDW BOUNDARY MISC KINETIC TOTAL TEMP POTENTIAL TOTAL3 TEMPAVG PRESSURE GPRESSURE VOLUME PRESSAVG GPRESSAVG
ENERGY: 700000 0.0000 0.0000 0.0000 0.0000 -12565.4000 1830.0382 0.0000 0.0000 1214.1589 -9521.2029 207.3973 -10735.3618 -9519.0649 207.3973 -461.9243 -391.0301 28865.8336 -461.9243 -391.0301
ENERGY: 800000 0.0000 0.0000 0.0000 0.0000 -11966.6282 1661.7808 0.0000 0.0000 1385.2164 -8919.6310 236.6166 -10304.8474 -8918.0794 239.8579 -496.2713 -446.4775 29232.7401 3.1338 3.0364
TCL: Running 100000 steps at 270 kelvin.
TCL: Setting parameter langevinTemp to 270
TCL: Running for 100000 steps
ETITLE: TS BOND ANGLE DIHED IMPRP ELECT VDW BOUNDARY MISC KINETIC TOTAL TEMP POTENTIAL TOTAL3 TEMPAVG PRESSURE GPRESSURE VOLUME PRESSAVG GPRESSAVG
ENERGY: 800000 0.0000 0.0000 0.0000 0.0000 -11966.6282 1661.7808 0.0000 0.0000 1384.5179 -8920.3295 236.4973 -10304.8474 -8917.8736 236.4973 -519.6080 -448.8068 29232.7401 -519.6080 -448.8068
ENERGY: 900000 0.0000 0.0000 0.0000 0.0000 -11420.6695 1580.5970 0.0000 0.0000 1561.2113 -8278.8612 266.6793 -9840.0725 -8275.9205 269.9630 156.2475 212.3629 29792.3014 4.6997 4.5272
TCL: Running 1000000 steps at 300 kelvin.
TCL: Setting parameter langevinTemp to 300
TCL: Running for 1000000 steps
ETITLE: TS BOND ANGLE DIHED IMPRP ELECT VDW BOUNDARY MISC KINETIC TOTAL TEMP POTENTIAL TOTAL3 TEMPAVG PRESSURE GPRESSURE VOLUME PRESSAVG GPRESSAVG
ENERGY: 900000 0.0000 0.0000 0.0000 0.0000 -11420.6695 1580.5970 0.0000 0.0000 1560.4042 -8279.6683 266.5414 -9840.0725 -8277.0659 266.5414 121.7932 212.4698 29792.3014 121.7932 212.4698
ENERGY: 1100000 0.0000 0.0000 0.0000 0.0000 -10853.8174 1420.6045 0.0000 0.0000 1791.0212 -7642.1917 305.9344 -9433.2129 -7640.0469 300.4172 -145.7623 -2.3095 30586.0428 2.6827 2.6510
ENERGY: 1300000 0.0000 0.0000 0.0000 0.0000 -10848.0913 1405.6413 0.0000 0.0000 1705.4039 -7737.0461 291.3097 -9442.4500 -7735.0638 300.0565 -378.2509 -301.2238 30865.1785 3.3579 3.2813
ENERGY: 1500000 0.0000 0.0000 0.0000 0.0000 -10941.7037 1427.6681 0.0000 0.0000 1721.8098 -7792.2258 294.1120 -9514.0356 -7789.7454 300.4491 -206.1775 -112.5367 30666.5442 3.4149 3.4856
ENERGY: 1700000 0.0000 0.0000 0.0000 0.0000 -10808.0999 1369.7572 0.0000 0.0000 1710.8296 -7727.5130 292.2365 -9438.3426 -7724.3966 300.0910 -631.8793 -491.7981 30862.8631 3.4404 3.5346
ENERGY: 1900000 0.0000 0.0000 0.0000 0.0000 -10831.4121 1374.2685 0.0000 0.0000 1743.9177 -7713.2259 297.8884 -9457.1436 -7708.5468 300.6824 -514.7102 -461.4798 30500.0682 3.6128 3.4090
TCL: Exiting due to exit command.
