Info: SIMULATION PARAMETERS:
Info: TIMESTEP               2
Info: NUMBER OF STEPS        0
Info: STEPS PER CYCLE        10
Info: PERIODIC CELL BASIS 1  30.9554 0 0
Info: PERIODIC CELL BASIS 2  0 31.31 0
Info: PERIODIC CELL BASIS 3  0 0 31.5858
Info: PERIODIC CELL CENTER   0 0 0
Info: WRAPPING WATERS AROUND PERIODIC BOUNDARIES ON OUTPUT.
Info: WRAPPING ALL CLUSTERS AROUND PERIODIC BOUNDARIES ON OUTPUT.
Info: FIRST LDB TIMESTEP     50
Info: LAST LDB TIMESTEP     -1
Info: HOM BACKGROUND SCALING 1
Info: PME BACKGROUND SCALING 1
Info: MIN ATOMS PER PATCH    40
Info: EMPTY PATCH LOAD       40 ATOMS
Info: VELOCITY FILE          mobley_1708457_equil.vel
Info: CENTER OF MASS MOVING INITIALLY? NO
Info: DIELECTRIC             1
Info: EXCLUDE                SCALED ONE-FOUR
Info: 1-4 ELECTROSTATICS SCALED BY 0.833333
Info: MODIFIED 1-4 VDW PARAMETERS WILL BE USED
Info: DCD FILENAME           mobley_1708457_prod.dcd
Info: DCD FREQUENCY          100000
Info: DCD FIRST STEP         100000
Info: DCD FILE WILL CONTAIN UNIT CELL DATA
Info: XST FILENAME           mobley_1708457_prod.xst
Info: XST FREQUENCY          100000
Info: NO VELOCITY DCD OUTPUT
Info: NO FORCE DCD OUTPUT
Info: OUTPUT FILENAME        mobley_1708457_prod
Info: BINARY OUTPUT FILES WILL BE USED
Info: RESTART FILENAME       mobley_1708457_prod.restart
Info: RESTART FREQUENCY      100000
Info: BINARY RESTART FILES WILL BE USED
Info: CUTOFF                 9
Info: PAIRLIST DISTANCE      11
Info: PAIRLIST SHRINK RATE   0.01
Info: PAIRLIST GROW RATE     0.01
Info: PAIRLIST TRIGGER       0.3
Info: PAIRLISTS PER CYCLE    2
Info: PAIRLISTS ENABLED
Info: MARGIN                 2
Info: HYDROGEN GROUP CUTOFF  2.5
Info: PATCH DIMENSION        15.5
Info: ENERGY OUTPUT STEPS    100000
Info: ENERGY EVALUATION STEPS    100000
Info: OUTPUT ENERGY PRECISION 4
Info: CROSSTERM ENERGY INCLUDED IN DIHEDRAL
Info: TIMING OUTPUT STEPS    1000000
Info: PRESSURE OUTPUT STEPS  100000
Info: ALCHEMICAL FEP ON
Info: FEP CURRENT LAMBDA VALUE     1
Info: FEP COMPARISON LAMBDA VALUE  0.95
Info: FEP INTRA-ALCHEMICAL NON-BONDED INTERACTIONS WILL BE RETAINED
Info: FEP INTRA-ALCHEMICAL BONDED INTERACTIONS WILL BE RETAINED
Info: FEP VDW SHIFTING COEFFICIENT 5
Info: FEP ELEC. ACTIVE FOR ANNIHILATED PARTICLES BETWEEN LAMBDA = 0 AND LAMBDA = 0.5
Info: FEP ELEC. ACTIVE FOR EXNIHILATED PARTICLES BETWEEN LAMBDA = 0.5 AND LAMBDA = 1
Info: FEP VDW ACTIVE FOR ANNIHILATED PARTICLES BETWEEN LAMBDA = 0 AND LAMBDA = 1
Info: FEP VDW ACTIVE FOR EXNIHILATED PARTICLES BETWEEN LAMBDA = 0 AND LAMBDA = 1
Info: FEP BOND ACTIVE FOR ANNIHILATED PARTICLES BETWEEN LAMBDA = 1 AND LAMBDA = 1
Info: FEP BOND ACTIVE FOR EXNIHILATED PARTICLES BETWEEN LAMBDA = 0 AND LAMBDA = 0
Info: LANGEVIN DYNAMICS ACTIVE
Info: LANGEVIN TEMPERATURE   300
Info: LANGEVIN USING BBK INTEGRATOR
Info: LANGEVIN DAMPING COEFFICIENT IS 1 INVERSE PS
Info: LANGEVIN DYNAMICS APPLIED TO HYDROGENS
Info: LANGEVIN PISTON PRESSURE CONTROL ACTIVE
Info:        TARGET PRESSURE IS 1.01325 BAR
Info:     OSCILLATION PERIOD IS 50 FS
Info:             DECAY TIME IS 25 FS
Info:     PISTON TEMPERATURE IS 300 K
Info:       PRESSURE CONTROL IS GROUP-BASED
Info:    INITIAL STRAIN RATE IS -0.000109535 -0.000109535 -0.000109535
Info:       CELL FLUCTUATION IS ISOTROPIC
Info: PARTICLE MESH EWALD (PME) ACTIVE
Info: PME TOLERANCE               1e-06
Info: PME EWALD COEFFICIENT       0.348832
Info: PME INTERPOLATION ORDER     4
Info: PME GRID DIMENSIONS         32 32 32
Info: PME MAXIMUM GRID SPACING    1
Info: PME CALCULATION WILL BE PERFORMED ON GPU
Info: FULL ELECTROSTATIC EVALUATION FREQUENCY      2
Info: USING VERLET I (r-RESPA) MTS SCHEME.
Info: C1 SPLITTING OF LONG RANGE ELECTROSTATICS
Info: PLACING ATOMS IN PATCHES BY HYDROGEN GROUPS
Info: RIGID BONDS TO HYDROGEN : ALL
Info:         ERROR TOLERANCE : 1e-08
Info:          MAX ITERATIONS : 100
Info: RIGID WATER USING SETTLE ALGORITHM
Info: RANDOM NUMBER SEED     1742553069
Info: USE HYDROGEN BONDS?    NO
Info: Using AMBER format force field!
Info: AMBER PARM FILE        mobley_1708457.prmtop
Info: COORDINATE PDB         mobley_1708457.pdb
Info: Exclusions will be read from PARM file!
Info: SCNB (VDW SCALING)     2
Info: USING ARITHMETIC MEAN TO COMBINE L-J SIGMA PARAMETERS
Info: BINARY COORDINATES     mobley_1708457_equil.coor
Info: SUMMARY OF PARAMETERS:
Info: 5 BONDS
Info: 5 ANGLES
Info:   5 HARMONIC
Info:   0 COSINE-BASED
Info: 2 DIHEDRAL
Info: 0 IMPROPER
Info: 0 CROSSTERM
Info: 0 VDW
Info: 21 VDW_PAIRS
Info: 0 NBTHOLE_PAIRS
Info: To read alchdata from file: mobley_1708457.pdb
Info: To read alchflag data from column: 5
Info: STRUCTURE SUMMARY:
Info: 2987 ATOMS
Info: 2986 BONDS
Info: 18 ANGLES
Info: 18 DIHEDRALS
Info: 0 IMPROPERS
Info: 0 CROSSTERMS
Info: 3022 EXCLUSIONS
Info: 2982 RIGID BONDS
Info: ALCH: 0 ATOMS TO DISAPPEAR IN FINAL STATE
Info: ALCH: 11 ATOMS TO APPEAR IN FINAL STATE
Info: 5979 DEGREES OF FREEDOM
Info: 997 HYDROGEN GROUPS
Info: 4 ATOMS IN LARGEST HYDROGEN GROUP
Info: 997 MIGRATION GROUPS
Info: 4 ATOMS IN LARGEST MIGRATION GROUP
Info: TOTAL MASS = 17966 amu
Info: TOTAL CHARGE = -0.000100002 e
Info: MASS DENSITY = 0.974539 g/cm^3
Info: ATOM DENSITY = 0.0975717 atoms/A^3
Info: ADDED 0 IMPLICIT EXCLUSIONS
Info: NONBONDED TABLE R-SQUARED SPACING: 0.0625
Info: NONBONDED TABLE SIZE: 705 POINTS
Info: REMOVING COM VELOCITY -0.00602476 -0.222547 -0.183232
Info: Use 3D box decompostion in PME FFT.
Info: Updated CUDA force table with 4096 elements.
Info: Updated CUDA LJ table with 6 x 6 elements.
Info: Found 14 unique exclusion lists needing 24 bytes
TCL: Running for 1500000 steps
ETITLE: TS BOND ANGLE DIHED IMPRP ELECT VDW BOUNDARY MISC KINETIC TOTAL TEMP POTENTIAL TOTALAVG TEMPAVG PRESSURE GPRESSURE VOLUME PRESSAVG GPRESSAVG
ENERGY: 0 3.1228 4.0398 0.4075 0.0000 -10910.9311 1468.9245 0.0000 0.0000 1791.0678 -7643.3687 301.4907 -9434.4365 -7643.3687 301.4907 435.7099 524.9497 30613.3874 435.7099 524.9497
ENERGY: 300000 4.5378 5.3670 1.7437 0.0000 -10949.8167 1477.8799 0.0000 0.0000 1762.4415 -7697.8467 296.6720 -9460.2883 -7711.1294 300.0577 14.5315 58.9993 31014.8184 162.1145 218.3431
ENERGY: 600000 6.6988 8.6346 0.5193 0.0000 -10954.2001 1529.6096 0.0000 0.0000 1742.3332 -7666.4046 293.2872 -9408.7378 -7698.6695 299.9601 912.7545 920.3823 30597.9388 231.6933 282.8560
ENERGY: 900000 0.4589 3.0224 1.2890 0.0000 -10941.2467 1426.8240 0.0000 0.0000 1794.9262 -7714.7261 302.1401 -9509.6523 -7695.0944 300.1047 -252.9475 -164.4421 30762.7679 227.6247 290.9562
ENERGY: 1200000 1.4993 6.3651 0.1317 0.0000 -10913.8961 1460.0557 0.0000 0.0000 1760.8380 -7685.0063 296.4021 -9445.8443 -7690.5512 299.7719 154.6727 210.9131 30780.6562 206.7114 265.6906
ENERGY: 1500000 1.4172 3.5827 0.2663 0.0000 -10980.0541 1503.0201 0.0000 0.0000 1805.1744 -7666.5934 303.8652 -9471.7678 -7688.6451 299.6969 273.9097 357.1528 30707.7586 185.8959 247.1435
TCL: Running FEP window   2: Lambda1 0.95   Lambda2 0.8999999999999999 [dLambda -0.050000000000000044]
TCL: Setting parameter firsttimestep to 0
TCL: Setting parameter alchLambda to 0.95
Info: NONBONDED TABLE R-SQUARED SPACING: 0.0625
Info: NONBONDED TABLE SIZE: 705 POINTS
TCL: Setting parameter alchLambda2 to 0.8999999999999999
Info: NONBONDED TABLE R-SQUARED SPACING: 0.0625
Info: NONBONDED TABLE SIZE: 705 POINTS
TCL: Running for 1500000 steps
ETITLE: TS BOND ANGLE DIHED IMPRP ELECT VDW BOUNDARY MISC KINETIC TOTAL TEMP POTENTIAL TOTALAVG TEMPAVG PRESSURE GPRESSURE VOLUME PRESSAVG GPRESSAVG
ENERGY: 0 1.4172 3.5827 0.2663 0.0000 -10978.1948 1502.9637 0.0000 0.0000 1804.3154 -7665.6494 303.7206 -9469.9649 -7665.6494 303.7206 263.3178 348.6571 30707.7586 263.3178 348.6571
ENERGY: 300000 1.8488 4.5775 1.7561 0.0000 -10915.6036 1494.3692 0.0000 0.0000 1731.4318 -7681.6203 291.4521 -9413.0521 -7692.2123 296.6239 751.4132 724.7060 30271.6226 159.0747 200.3498
ENERGY: 600000 4.7619 5.3367 0.1375 0.0000 -10962.9352 1449.1736 0.0000 0.0000 1796.9320 -7706.5936 302.4778 -9503.5256 -7692.4910 298.5328 181.1755 217.3428 30520.8555 17.1704 77.3701
ENERGY: 900000 1.7697 3.9499 0.9503 0.0000 -10920.8547 1442.6040 0.0000 0.0000 1759.9890 -7711.5918 296.2592 -9471.5808 -7693.7925 298.6708 44.8849 99.2737 30468.8904 -18.8553 37.9010
ENERGY: 1200000 1.7545 4.4899 1.0972 0.0000 -10905.5059 1426.5992 0.0000 0.0000 1805.9755 -7665.5895 304.0001 -9471.5650 -7699.4983 299.4284 -204.0175 -89.2670 30779.3644 24.8447 88.4075
ENERGY: 1500000 2.4298 4.7489 2.0848 0.0000 -10928.2971 1421.5532 0.0000 0.0000 1832.3930 -7665.0874 308.4469 -9497.4804 -7701.3915 300.4405 -318.5163 -234.4472 30866.3099 -41.1957 32.2778
TCL: Running FEP window   3: Lambda1 0.8999999999999999 Lambda2 0.8499999999999999 [dLambda -0.050000000000000044]
TCL: Setting parameter firsttimestep to 0
TCL: Setting parameter alchLambda to 0.8999999999999999
Info: NONBONDED TABLE R-SQUARED SPACING: 0.0625
Info: NONBONDED TABLE SIZE: 705 POINTS
TCL: Setting parameter alchLambda2 to 0.8499999999999999
Info: NONBONDED TABLE R-SQUARED SPACING: 0.0625
Info: NONBONDED TABLE SIZE: 705 POINTS
TCL: Running for 1500000 steps
ETITLE: TS BOND ANGLE DIHED IMPRP ELECT VDW BOUNDARY MISC KINETIC TOTAL TEMP POTENTIAL TOTALAVG TEMPAVG PRESSURE GPRESSURE VOLUME PRESSAVG GPRESSAVG
ENERGY: 0 2.4298 4.7489 2.0848 0.0000 -10926.1447 1420.8541 0.0000 0.0000 1831.5044 -7664.5227 308.2974 -9496.0271 -7664.5227 308.2974 -349.2239 -249.2975 30866.3099 -349.2239 -249.2975
ENERGY: 300000 0.2365 3.6032 1.9065 0.0000 -10992.7050 1537.4831 0.0000 0.0000 1822.2147 -7627.2610 306.7336 -9449.4757 -7693.4887 301.1200 699.2955 813.3383 30396.9811 -36.8660 54.6574
ENERGY: 600000 0.9288 10.4460 0.8589 0.0000 -10869.9889 1418.0864 0.0000 0.0000 1771.5597 -7668.1090 298.2069 -9439.6688 -7687.8380 300.0258 -18.2521 31.3001 30273.8290 -6.2595 69.3796
ENERGY: 900000 2.0128 4.0825 1.1975 0.0000 -11012.5352 1580.5347 0.0000 0.0000 1768.4889 -7656.2188 297.6899 -9424.7078 -7680.0620 300.6054 1080.6539 1138.3631 30679.1703 130.7734 208.0217
ENERGY: 1200000 1.8230 5.2882 1.9879 0.0000 -11045.0773 1550.8577 0.0000 0.0000 1770.2515 -7714.8692 297.9866 -9485.1206 -7684.2809 300.0461 798.5750 895.9641 30543.2204 221.1098 301.7871
ENERGY: 1500000 3.0888 6.6353 1.7898 0.0000 -10858.4125 1437.0337 0.0000 0.0000 1781.7521 -7628.1128 299.9225 -9409.8650 -7674.1884 299.9326 -150.6853 -134.7975 31217.0088 183.3519 254.0833
TCL: Running FEP window   4: Lambda1 0.8499999999999999 Lambda2 0.7999999999999998 [dLambda -0.050000000000000044]
TCL: Setting parameter firsttimestep to 0
TCL: Setting parameter alchLambda to 0.8499999999999999
Info: NONBONDED TABLE R-SQUARED SPACING: 0.0625
Info: NONBONDED TABLE SIZE: 705 POINTS
TCL: Setting parameter alchLambda2 to 0.7999999999999998
Info: NONBONDED TABLE R-SQUARED SPACING: 0.0625
Info: NONBONDED TABLE SIZE: 705 POINTS
TCL: Running for 1500000 steps
ETITLE: TS BOND ANGLE DIHED IMPRP ELECT VDW BOUNDARY MISC KINETIC TOTAL TEMP POTENTIAL TOTALAVG TEMPAVG PRESSURE GPRESSURE VOLUME PRESSAVG GPRESSAVG
ENERGY: 0 3.0888 6.6353 1.7898 0.0000 -10856.1158 1436.4330 0.0000 0.0000 1780.8805 -7627.2884 299.7758 -9408.1689 -7627.2884 299.7758 -234.1550 -145.2984 31217.0088 -234.1550 -145.2984
ENERGY: 300000 2.8947 3.3433 0.1800 0.0000 -10955.7490 1449.2165 0.0000 0.0000 1813.8801 -7686.2345 305.3307 -9500.1146 -7634.9227 303.1511 -10.0244 98.5837 30472.1679 -147.6363 -72.5125
ENERGY: 600000 1.5882 1.9310 1.3621 0.0000 -10911.7737 1442.4945 0.0000 0.0000 1817.0631 -7647.3349 305.8665 -9464.3980 -7642.4796 301.6265 -33.7251 46.9790 30412.0157 -349.6149 -272.9557
ENERGY: 900000 0.9842 2.5011 0.1788 0.0000 -10935.2008 1440.5988 0.0000 0.0000 1814.3780 -7676.5600 305.4145 -9490.9380 -7640.0386 302.0614 -298.3138 -244.5083 31068.5328 -326.9578 -252.4583
ENERGY: 1200000 0.8110 5.5411 0.2452 0.0000 -10982.7532 1519.2453 0.0000 0.0000 1769.3936 -7687.5170 297.8422 -9456.9106 -7644.5751 301.5353 339.6186 399.3258 30902.2546 -147.9618 -82.1854
ENERGY: 1500000 2.8409 3.1586 1.0434 0.0000 -11109.5925 1533.4650 0.0000 0.0000 1764.0484 -7805.0361 296.9425 -9569.0846 -7662.5139 300.5407 363.1643 361.6519 30350.0267 -138.6294 -77.6035
TCL: Running FEP window   5: Lambda1 0.7999999999999998 Lambda2 0.7499999999999998 [dLambda -0.050000000000000044]
TCL: Setting parameter firsttimestep to 0
TCL: Setting parameter alchLambda to 0.7999999999999998
Info: NONBONDED TABLE R-SQUARED SPACING: 0.0625
Info: NONBONDED TABLE SIZE: 705 POINTS
TCL: Setting parameter alchLambda2 to 0.7499999999999998
Info: NONBONDED TABLE R-SQUARED SPACING: 0.0625
Info: NONBONDED TABLE SIZE: 705 POINTS
TCL: Running for 1500000 steps
ETITLE: TS BOND ANGLE DIHED IMPRP ELECT VDW BOUNDARY MISC KINETIC TOTAL TEMP POTENTIAL TOTALAVG TEMPAVG PRESSURE GPRESSURE VOLUME PRESSAVG GPRESSAVG
ENERGY: 0 2.8409 3.1586 1.0434 0.0000 -11106.6175 1532.2096 0.0000 0.0000 1763.1600 -7804.2050 296.7929 -9567.3650 -7804.2050 296.7929 267.1816 345.1132 30350.0267 267.1816 345.1132
ENERGY: 300000 1.2109 5.5306 0.8179 0.0000 -11074.5806 1537.5130 0.0000 0.0000 1807.9190 -7721.5891 304.3272 -9529.5081 -7729.3112 301.7617 249.7393 229.6173 31236.2651 126.4246 139.9851
ENERGY: 600000 0.3519 2.8736 1.6483 0.0000 -10999.6114 1458.5656 0.0000 0.0000 1761.5605 -7774.6116 296.5237 -9536.1720 -7741.4274 300.7441 109.8643 121.4683 30266.7454 143.8874 163.4987
ENERGY: 900000 1.3262 7.5331 0.6071 0.0000 -10894.8128 1453.5618 0.0000 0.0000 1815.2906 -7616.4941 305.5681 -9431.7847 -7718.2525 300.3883 313.2428 333.5078 30590.1185 113.2231 138.9640
ENERGY: 1200000 1.2536 8.3458 0.1921 0.0000 -10771.7328 1387.6403 0.0000 0.0000 1778.4091 -7595.8919 299.3598 -9374.3010 -7701.3606 299.9171 -290.7769 -231.7826 30742.0730 39.7886 70.5260
ENERGY: 1500000 2.7574 5.5912 1.6804 0.0000 -10884.6604 1364.8070 0.0000 0.0000 1858.4315 -7651.3929 312.8300 -9509.8244 -7701.9647 300.0384 -884.3534 -797.1657 30711.9006 41.4385 71.4631
TCL: Running FEP window   6: Lambda1 0.7499999999999998 Lambda2 0.6999999999999997 [dLambda -0.050000000000000044]
TCL: Setting parameter firsttimestep to 0
TCL: Setting parameter alchLambda to 0.7499999999999998
Info: NONBONDED TABLE R-SQUARED SPACING: 0.0625
Info: NONBONDED TABLE SIZE: 705 POINTS
TCL: Setting parameter alchLambda2 to 0.6999999999999997
Info: NONBONDED TABLE R-SQUARED SPACING: 0.0625
Info: NONBONDED TABLE SIZE: 705 POINTS
TCL: Running for 1500000 steps
ETITLE: TS BOND ANGLE DIHED IMPRP ELECT VDW BOUNDARY MISC KINETIC TOTAL TEMP POTENTIAL TOTALAVG TEMPAVG PRESSURE GPRESSURE VOLUME PRESSAVG GPRESSAVG
ENERGY: 0 2.7574 5.5912 1.6804 0.0000 -10883.4334 1364.7026 0.0000 0.0000 1857.5475 -7651.1543 312.6812 -9508.7018 -7651.1543 312.6812 -887.3029 -804.8007 30711.9006 -887.3029 -804.8007
ENERGY: 300000 4.2564 8.8043 0.6417 0.0000 -10834.1417 1352.9748 0.0000 0.0000 1790.8882 -7676.5763 301.4604 -9467.4645 -7643.1656 306.1035 -544.4241 -445.0281 30316.2192 -552.5755 -490.1774
ENERGY: 600000 0.1792 7.7261 1.3430 0.0000 -10814.7399 1426.8280 0.0000 0.0000 1751.0168 -7627.6468 294.7489 -9378.6637 -7652.3983 302.1768 171.0164 213.9552 30464.0940 -475.9794 -414.6096
ENERGY: 900000 1.3791 6.1688 0.1516 0.0000 -10840.2911 1406.4561 0.0000 0.0000 1812.4975 -7613.6379 305.0979 -9426.1354 -7660.2068 303.3330 -415.6041 -304.1114 30817.3006 -402.2922 -348.8507
ENERGY: 1200000 3.7912 3.2808 0.9879 0.0000 -10968.6128 1486.8107 0.0000 0.0000 1822.7068 -7651.0355 306.8165 -9473.7423 -7663.5778 302.8740 274.3389 374.4540 30626.1453 -293.6562 -235.5442
ENERGY: 1500000 5.0805 3.4119 0.5889 0.0000 -10964.0546 1525.5089 0.0000 0.0000 1754.7589 -7674.7055 295.3788 -9429.4644 -7677.3217 302.1831 582.4234 562.7093 30811.4503 -230.7687 -178.0753
TCL: Running FEP window   7: Lambda1 0.6999999999999997 Lambda2 0.6499999999999997 [dLambda -0.050000000000000044]
TCL: Setting parameter firsttimestep to 0
TCL: Setting parameter alchLambda to 0.6999999999999997
Info: NONBONDED TABLE R-SQUARED SPACING: 0.0625
Info: NONBONDED TABLE SIZE: 705 POINTS
TCL: Setting parameter alchLambda2 to 0.6499999999999997
Info: NONBONDED TABLE R-SQUARED SPACING: 0.0625
Info: NONBONDED TABLE SIZE: 705 POINTS
TCL: Running for 1500000 steps
ETITLE: TS BOND ANGLE DIHED IMPRP ELECT VDW BOUNDARY MISC KINETIC TOTAL TEMP POTENTIAL TOTALAVG TEMPAVG PRESSURE GPRESSURE VOLUME PRESSAVG GPRESSAVG
ENERGY: 0 5.0805 3.4119 0.5889 0.0000 -10962.8124 1525.5938 0.0000 0.0000 1753.8859 -7674.2513 295.2318 -9428.1372 -7674.2513 295.2318 492.4979 555.9480 30811.4503 492.4979 555.9480
ENERGY: 300000 0.8880 5.4296 0.1972 0.0000 -10896.3363 1510.5780 0.0000 0.0000 1778.9228 -7600.3208 299.4463 -9379.2436 -7670.9276 300.7536 538.3747 567.1107 31140.5649 305.3034 354.9283
ENERGY: 600000 0.9750 6.6615 0.5352 0.0000 -11023.2834 1498.4938 0.0000 0.0000 1737.6553 -7778.9625 292.4997 -9516.6179 -7684.7758 297.5900 211.8582 260.4474 30554.7135 257.1996 316.0653
ENERGY: 900000 3.2416 7.7581 0.4370 0.0000 -10949.4416 1490.1068 0.0000 0.0000 1770.1331 -7677.7650 297.9667 -9447.8981 -7678.1799 298.6834 491.5534 544.3411 30425.3322 178.4326 234.9739
ENERGY: 1200000 3.5051 7.6082 0.5522 0.0000 -10903.4870 1418.4752 0.0000 0.0000 1778.7415 -7694.6048 299.4158 -9473.3463 -7673.7731 298.9945 -228.0611 -85.3635 30602.2964 130.4855 197.6687
ENERGY: 1500000 0.7886 9.4881 1.6519 0.0000 -10885.1430 1392.1127 0.0000 0.0000 1824.6779 -7656.4238 307.1482 -9481.1016 -7678.7400 299.6905 -634.3935 -593.9965 31315.9257 72.2714 137.4213
TCL: Running FEP window   8: Lambda1 0.6499999999999997 Lambda2 0.5999999999999996 [dLambda -0.050000000000000044]
TCL: Setting parameter firsttimestep to 0
TCL: Setting parameter alchLambda to 0.6499999999999997
Info: NONBONDED TABLE R-SQUARED SPACING: 0.0625
Info: NONBONDED TABLE SIZE: 705 POINTS
TCL: Setting parameter alchLambda2 to 0.5999999999999996
Info: NONBONDED TABLE R-SQUARED SPACING: 0.0625
Info: NONBONDED TABLE SIZE: 705 POINTS
TCL: Running for 1500000 steps
ETITLE: TS BOND ANGLE DIHED IMPRP ELECT VDW BOUNDARY MISC KINETIC TOTAL TEMP POTENTIAL TOTALAVG TEMPAVG PRESSURE GPRESSURE VOLUME PRESSAVG GPRESSAVG
ENERGY: 0 0.7886 9.4881 1.6519 0.0000 -10884.8823 1392.6146 0.0000 0.0000 1823.7453 -7656.5938 306.9913 -9480.3391 -7656.5938 306.9913 -667.9572 -591.8648 31315.9257 -667.9572 -591.8648
ENERGY: 300000 1.7607 5.7778 0.9734 0.0000 -10868.0778 1395.2528 0.0000 0.0000 1803.7162 -7660.5969 303.6198 -9464.3131 -7696.4569 299.7657 -543.0638 -429.9875 30854.8330 -389.3258 -309.6680
ENERGY: 600000 0.6800 6.4390 0.2662 0.0000 -10962.2272 1380.7545 0.0000 0.0000 1854.3963 -7719.6912 312.1507 -9574.0875 -7689.0805 301.0326 -784.3806 -797.4509 30770.9722 -407.5293 -341.8812
ENERGY: 900000 1.9487 5.3141 0.2186 0.0000 -11089.7827 1517.2407 0.0000 0.0000 1797.0110 -7768.0496 302.4911 -9565.0606 -7710.1975 301.2664 124.7379 245.6429 30671.2459 -271.9935 -197.5217
ENERGY: 1200000 0.9417 5.9642 0.5151 0.0000 -10874.4940 1440.4735 0.0000 0.0000 1736.6961 -7689.9032 292.3383 -9426.5993 -7713.9186 300.4382 24.4185 92.2812 30698.4886 -220.0865 -153.1261
ENERGY: 1500000 4.8511 6.2865 1.1896 0.0000 -10880.5132 1414.4414 0.0000 0.0000 1768.8196 -7684.9250 297.7456 -9453.7446 -7707.2505 300.3168 -484.6848 -451.6733 31099.4474 -259.8275 -197.6970
TCL: Running FEP window   9: Lambda1 0.5999999999999996 Lambda2 0.5499999999999996 [dLambda -0.050000000000000044]
TCL: Setting parameter firsttimestep to 0
TCL: Setting parameter alchLambda to 0.5999999999999996
Info: NONBONDED TABLE R-SQUARED SPACING: 0.0625
Info: NONBONDED TABLE SIZE: 705 POINTS
TCL: Setting parameter alchLambda2 to 0.5499999999999996
Info: NONBONDED TABLE R-SQUARED SPACING: 0.0625
Info: NONBONDED TABLE SIZE: 705 POINTS
TCL: Running for 1500000 steps
ETITLE: TS BOND ANGLE DIHED IMPRP ELECT VDW BOUNDARY MISC KINETIC TOTAL TEMP POTENTIAL TOTALAVG TEMPAVG PRESSURE GPRESSURE VOLUME PRESSAVG GPRESSAVG
ENERGY: 0 4.8511 6.2865 1.1896 0.0000 -10879.5782 1414.1395 0.0000 0.0000 1767.9255 -7685.1860 297.5951 -9453.1115 -7685.1860 297.5951 -526.8621 -459.1077 31099.4474 -526.8621 -459.1077
ENERGY: 300000 2.6734 4.3121 0.2661 0.0000 -10967.1115 1481.7593 0.0000 0.0000 1755.0565 -7723.0441 295.4289 -9478.1006 -7702.5698 297.8545 -58.8884 124.2402 30692.9319 -184.3898 -68.6945
ENERGY: 600000 0.3335 6.1153 0.3186 0.0000 -11039.9397 1518.1357 0.0000 0.0000 1751.0597 -7763.9770 294.7561 -9515.0366 -7715.7992 297.1436 263.3248 344.4076 30766.4180 -126.6415 -26.9363
ENERGY: 900000 2.1220 5.6696 0.2886 0.0000 -11014.6727 1538.6553 0.0000 0.0000 1777.9481 -7689.9891 299.2822 -9467.9372 -7708.1268 297.8330 393.4792 506.0632 30689.5464 -97.6544 -1.9065
ENERGY: 1200000 3.0535 4.7771 0.1683 0.0000 -10777.7262 1343.9711 0.0000 0.0000 1769.5502 -7656.2059 297.8686 -9425.7561 -7695.8253 298.2260 -1052.9821 -956.7768 31135.8398 -183.3446 -91.8417
ENERGY: 1500000 2.1830 6.6561 1.4354 0.0000 -10854.1891 1355.9410 0.0000 0.0000 1738.6468 -7749.3268 292.6666 -9487.9736 -7700.4687 297.4847 -661.1600 -638.6674 30412.6210 -298.5571 -211.9892
TCL: Running FEP window  10: Lambda1 0.5499999999999996 Lambda2 0.4999999999999996 [dLambda -0.04999999999999999]
TCL: Setting parameter firsttimestep to 0
TCL: Setting parameter alchLambda to 0.5499999999999996
Info: NONBONDED TABLE R-SQUARED SPACING: 0.0625
Info: NONBONDED TABLE SIZE: 705 POINTS
TCL: Setting parameter alchLambda2 to 0.4999999999999996
Info: NONBONDED TABLE R-SQUARED SPACING: 0.0625
Info: NONBONDED TABLE SIZE: 705 POINTS
TCL: Running for 1500000 steps
ETITLE: TS BOND ANGLE DIHED IMPRP ELECT VDW BOUNDARY MISC KINETIC TOTAL TEMP POTENTIAL TOTALAVG TEMPAVG PRESSURE GPRESSURE VOLUME PRESSAVG GPRESSAVG
ENERGY: 0 2.1830 6.6561 1.4354 0.0000 -10853.4325 1356.4255 0.0000 0.0000 1737.7616 -7748.9709 292.5176 -9486.7325 -7748.9709 292.5176 -725.2213 -637.7196 30412.6210 -725.2213 -637.7196
ENERGY: 300000 0.2842 4.3448 0.5451 0.0000 -10903.6239 1470.1583 0.0000 0.0000 1792.8921 -7635.3993 301.7977 -9428.2914 -7725.4039 299.5467 120.6321 198.5816 30733.4021 -109.8287 -44.6044
ENERGY: 600000 0.3311 4.8508 1.0598 0.0000 -11037.2123 1509.4640 0.0000 0.0000 1774.8406 -7746.6660 298.7591 -9521.5066 -7710.8509 299.4467 37.2266 120.8054 30928.7081 -178.4079 -108.0050
ENERGY: 900000 0.5415 3.8468 0.5063 0.0000 -10863.7737 1383.0890 0.0000 0.0000 1817.3873 -7658.4029 305.9210 -9475.7901 -7696.7249 300.8867 -498.5296 -486.7371 30704.3222 -48.6786 4.9022
ENERGY: 1200000 1.6251 5.1245 0.8460 0.0000 -10883.2666 1434.2622 0.0000 0.0000 1746.1102 -7695.2986 293.9229 -9441.4087 -7695.3787 299.2477 -227.7595 -161.5366 31064.8779 84.1640 144.6479
ENERGY: 1500000 1.8310 6.2955 0.1904 0.0000 -10859.2574 1391.4750 0.0000 0.0000 1817.5841 -7641.8814 305.9542 -9459.4655 -7683.5602 300.2391 -660.2778 -573.5514 31181.3499 1.0891 65.6811
TCL: Running FEP window  11: Lambda1 0.4999999999999996 Lambda2 0.4499999999999996 [dLambda -0.04999999999999999]
TCL: Setting parameter firsttimestep to 0
TCL: Setting parameter alchLambda to 0.4999999999999996
Info: NONBONDED TABLE R-SQUARED SPACING: 0.0625
Info: NONBONDED TABLE SIZE: 705 POINTS
TCL: Setting parameter alchLambda2 to 0.4499999999999996
Info: NONBONDED TABLE R-SQUARED SPACING: 0.0625
Info: NONBONDED TABLE SIZE: 705 POINTS
TCL: Running for 1500000 steps
ETITLE: TS BOND ANGLE DIHED IMPRP ELECT VDW BOUNDARY MISC KINETIC TOTAL TEMP POTENTIAL TOTALAVG TEMPAVG PRESSURE GPRESSURE VOLUME PRESSAVG GPRESSAVG
ENERGY: 0 1.8310 6.2955 0.1904 0.0000 -10859.5288 1391.4818 0.0000 0.0000 1816.6996 -7643.0305 305.8053 -9459.7301 -7643.0305 305.8053 -669.2723 -581.4073 31181.3499 -669.2723 -581.4073
ENERGY: 300000 3.6800 6.9863 0.1110 0.0000 -11040.5748 1521.0927 0.0000 0.0000 1779.5753 -7729.1295 299.5561 -9508.7048 -7681.5585 302.1909 199.1093 334.8965 30738.7682 -62.3570 24.2305
ENERGY: 600000 0.8514 1.5693 0.1119 0.0000 -11148.6222 1572.8740 0.0000 0.0000 1773.4672 -7799.7484 298.5279 -9573.2156 -7714.6435 299.3978 546.2278 627.4604 30673.1980 4.7659 71.5845
ENERGY: 900000 2.6110 7.3101 0.8305 0.0000 -11043.3971 1456.0022 0.0000 0.0000 1794.3457 -7782.2978 302.0424 -9576.6434 -7714.7677 299.1881 -473.5995 -407.2921 30893.6083 28.5746 96.8620
ENERGY: 1200000 0.5871 9.6320 0.5524 0.0000 -10910.5713 1430.0973 0.0000 0.0000 1753.0399 -7716.6625 295.0894 -9469.7024 -7709.4275 298.6294 -403.9210 -355.8184 30748.8443 150.3743 216.3857
ENERGY: 1500000 0.8910 9.7109 1.3489 0.0000 -10776.1925 1342.6879 0.0000 0.0000 1806.6259 -7614.9279 304.1096 -9421.5538 -7699.7332 299.3808 -941.7053 -848.5609 31144.0963 71.7204 134.7884
TCL: Running FEP window  12: Lambda1 0.4499999999999996 Lambda2 0.39999999999999963 [dLambda -0.04999999999999999]
TCL: Setting parameter firsttimestep to 0
TCL: Setting parameter alchLambda to 0.4499999999999996
Info: NONBONDED TABLE R-SQUARED SPACING: 0.0625
Info: NONBONDED TABLE SIZE: 705 POINTS
TCL: Setting parameter alchLambda2 to 0.39999999999999963
Info: NONBONDED TABLE R-SQUARED SPACING: 0.0625
Info: NONBONDED TABLE SIZE: 705 POINTS
TCL: Running for 1500000 steps
ETITLE: TS BOND ANGLE DIHED IMPRP ELECT VDW BOUNDARY MISC KINETIC TOTAL TEMP POTENTIAL TOTALAVG TEMPAVG PRESSURE GPRESSURE VOLUME PRESSAVG GPRESSAVG
ENERGY: 0 0.8910 9.7109 1.3489 0.0000 -10776.1926 1343.0386 0.0000 0.0000 1805.7559 -7615.4473 303.9631 -9421.2032 -7615.4473 303.9631 -946.1090 -852.0918 31144.0963 -946.1090 -852.0918
ENERGY: 300000 1.0813 6.0468 0.3864 0.0000 -10979.7653 1507.3477 0.0000 0.0000 1741.4927 -7723.4105 293.1457 -9464.9032 -7630.4013 299.8321 546.7168 572.3840 30374.6171 129.9743 173.7600
ENERGY: 600000 2.9184 7.6533 0.1612 0.0000 -11042.1238 1545.5852 0.0000 0.0000 1784.8606 -7700.9450 300.4458 -9485.8056 -7643.3151 300.3031 740.0785 745.8952 30456.5003 70.8896 120.9370
ENERGY: 900000 3.6576 5.1928 0.3625 0.0000 -10704.0556 1287.1441 0.0000 0.0000 1767.4139 -7640.2847 297.5090 -9407.6986 -7642.3656 301.3444 -1209.8745 -1110.5057 30791.2931 -56.3979 -1.1324
ENERGY: 1200000 0.8269 5.0410 0.3624 0.0000 -10826.5600 1408.9678 0.0000 0.0000 1758.7283 -7652.6336 296.0470 -9411.3619 -7649.9060 300.3398 -318.5575 -231.8055 30494.7502 -58.1092 -3.7221
ENERGY: 1500000 1.9942 6.5365 0.4416 0.0000 -10897.0319 1431.9879 0.0000 0.0000 1795.8908 -7660.1809 302.3025 -9456.0717 -7654.2252 300.5524 -154.8801 -84.4444 30800.0860 -19.6644 32.3363
TCL: Running FEP window  13: Lambda1 0.39999999999999963 Lambda2 0.34999999999999964 [dLambda -0.04999999999999999]
TCL: Setting parameter firsttimestep to 0
TCL: Setting parameter alchLambda to 0.39999999999999963
Info: NONBONDED TABLE R-SQUARED SPACING: 0.0625
Info: NONBONDED TABLE SIZE: 705 POINTS
TCL: Setting parameter alchLambda2 to 0.34999999999999964
Info: NONBONDED TABLE R-SQUARED SPACING: 0.0625
Info: NONBONDED TABLE SIZE: 705 POINTS
TCL: Running for 1500000 steps
ETITLE: TS BOND ANGLE DIHED IMPRP ELECT VDW BOUNDARY MISC KINETIC TOTAL TEMP POTENTIAL TOTALAVG TEMPAVG PRESSURE GPRESSURE VOLUME PRESSAVG GPRESSAVG
ENERGY: 0 1.9942 6.5365 0.4416 0.0000 -10897.0313 1432.3305 0.0000 0.0000 1794.9970 -7660.7314 302.1521 -9455.7284 -7660.7314 302.1521 -163.3483 -83.2974 30800.0860 -163.3483 -83.2974
ENERGY: 300000 1.3321 12.8706 0.9622 0.0000 -11049.9044 1510.4180 0.0000 0.0000 1711.4981 -7812.8235 288.0967 -9524.3216 -7692.7059 299.7861 76.7626 116.4993 30679.5454 -86.4047 -35.0884
ENERGY: 600000 0.6572 8.1236 0.3474 0.0000 -10944.5553 1514.2025 0.0000 0.0000 1763.3501 -7657.8746 296.8249 -9421.2246 -7700.1084 298.6631 655.0855 699.1607 30450.4401 107.4553 166.7494
ENERGY: 900000 1.0783 7.1125 0.8563 0.0000 -10856.1363 1438.1901 0.0000 0.0000 1770.3488 -7638.5503 298.0030 -9408.8991 -7678.3107 300.2241 74.1280 139.5798 30630.2039 52.0326 104.8293
ENERGY: 1200000 0.6735 4.3920 0.1927 0.0000 -10964.7360 1557.2669 0.0000 0.0000 1790.6500 -7611.5609 301.4203 -9402.2109 -7666.4910 300.1154 1081.0657 1161.0115 30284.0273 77.7454 134.2101
ENERGY: 1500000 2.6788 2.8945 0.4596 0.0000 -11053.0834 1553.5280 0.0000 0.0000 1788.2424 -7705.2802 301.0151 -9493.5226 -7671.1213 300.7292 760.1839 820.8517 30581.1102 146.0179 202.6542
TCL: Running FEP window  14: Lambda1 0.34999999999999964 Lambda2 0.29999999999999966 [dLambda -0.04999999999999999]
TCL: Setting parameter firsttimestep to 0
TCL: Setting parameter alchLambda to 0.34999999999999964
Info: NONBONDED TABLE R-SQUARED SPACING: 0.0625
Info: NONBONDED TABLE SIZE: 705 POINTS
TCL: Setting parameter alchLambda2 to 0.29999999999999966
Info: NONBONDED TABLE R-SQUARED SPACING: 0.0625
Info: NONBONDED TABLE SIZE: 705 POINTS
TCL: Running for 1500000 steps
ETITLE: TS BOND ANGLE DIHED IMPRP ELECT VDW BOUNDARY MISC KINETIC TOTAL TEMP POTENTIAL TOTALAVG TEMPAVG PRESSURE GPRESSURE VOLUME PRESSAVG GPRESSAVG
ENERGY: 0 2.6788 2.8945 0.4596 0.0000 -11053.0832 1553.9658 0.0000 0.0000 1787.3519 -7705.7326 300.8652 -9493.0846 -7705.7326 300.8652 750.8835 820.3723 30581.1102 750.8835 820.3723
ENERGY: 300000 1.0331 5.1858 0.5608 0.0000 -11071.4132 1579.1441 0.0000 0.0000 1774.6108 -7710.8785 298.7204 -9485.4894 -7698.8032 303.5857 1232.5529 1211.8182 30020.4685 345.5373 396.1534
ENERGY: 600000 3.8141 3.6988 0.2332 0.0000 -11001.8461 1520.0846 0.0000 0.0000 1811.0969 -7662.9186 304.8622 -9474.0155 -7684.2912 304.4725 539.7244 582.4026 30400.2442 387.3217 441.1857
ENERGY: 900000 0.2245 6.5630 0.1953 0.0000 -11018.2217 1493.2164 0.0000 0.0000 1773.5901 -7744.4324 298.5486 -9518.0225 -7681.8696 303.2613 -13.5055 101.3246 30500.1442 255.2175 330.8239
ENERGY: 1200000 1.4436 6.3276 0.9625 0.0000 -11018.6343 1483.8215 0.0000 0.0000 1751.4360 -7774.6431 294.8194 -9526.0791 -7692.4745 301.5307 36.7646 70.7414 30493.4606 168.7040 237.1896
ENERGY: 1500000 2.2766 5.5955 0.3459 0.0000 -11034.4671 1473.6080 0.0000 0.0000 1780.4390 -7772.2022 299.7015 -9552.6411 -7692.5686 301.1294 -139.0013 -104.2411 30694.5094 62.8388 125.1434
TCL: Running FEP window  15: Lambda1 0.29999999999999966 Lambda2 0.24999999999999967 [dLambda -0.04999999999999999]
TCL: Setting parameter firsttimestep to 0
TCL: Setting parameter alchLambda to 0.29999999999999966
Info: NONBONDED TABLE R-SQUARED SPACING: 0.0625
Info: NONBONDED TABLE SIZE: 705 POINTS
TCL: Setting parameter alchLambda2 to 0.24999999999999967
Info: NONBONDED TABLE R-SQUARED SPACING: 0.0625
Info: NONBONDED TABLE SIZE: 705 POINTS
TCL: Running for 1500000 steps
ETITLE: TS BOND ANGLE DIHED IMPRP ELECT VDW BOUNDARY MISC KINETIC TOTAL TEMP POTENTIAL TOTALAVG TEMPAVG PRESSURE GPRESSURE VOLUME PRESSAVG GPRESSAVG
ENERGY: 0 2.2766 5.5955 0.3459 0.0000 -11034.4677 1473.8203 0.0000 0.0000 1779.5654 -7772.8641 299.5545 -9552.4294 -7772.8641 299.5545 -193.7391 -103.3580 30694.5094 -193.7391 -103.3580
ENERGY: 300000 1.0395 2.7142 0.6918 0.0000 -10942.9172 1480.7115 0.0000 0.0000 1748.5027 -7709.2574 294.3257 -9457.7601 -7701.1103 299.5561 -90.4966 -2.5005 31131.2419 -263.0233 -208.9329
ENERGY: 600000 0.3721 6.3026 1.0522 0.0000 -10916.8890 1462.0218 0.0000 0.0000 1771.9787 -7675.1616 298.2774 -9447.1403 -7681.7679 299.7783 -37.9902 93.1674 30870.5659 -166.4983 -84.4967
ENERGY: 900000 4.0141 4.0549 0.2020 0.0000 -11021.5696 1499.8097 0.0000 0.0000 1723.5353 -7789.9535 290.1229 -9513.4888 -7683.9740 298.7324 8.4341 54.3043 30940.2520 -202.3503 -126.3580
ENERGY: 1200000 0.3604 4.2848 0.1698 0.0000 -10966.6777 1457.3730 0.0000 0.0000 1753.9841 -7750.5057 295.2483 -9504.4898 -7701.9443 299.4317 -39.8938 -69.6417 30515.4076 -179.3202 -112.9448
ENERGY: 1500000 1.0769 6.3900 0.1772 0.0000 -11036.5586 1551.3339 0.0000 0.0000 1740.1515 -7737.4290 292.9199 -9477.5805 -7701.2052 298.7011 476.0787 485.9724 31057.1199 -129.3882 -67.3177
TCL: Running FEP window  16: Lambda1 0.24999999999999967 Lambda2 0.19999999999999968 [dLambda -0.04999999999999999]
TCL: Setting parameter firsttimestep to 0
TCL: Setting parameter alchLambda to 0.24999999999999967
Info: NONBONDED TABLE R-SQUARED SPACING: 0.0625
Info: NONBONDED TABLE SIZE: 705 POINTS
TCL: Setting parameter alchLambda2 to 0.19999999999999968
Info: NONBONDED TABLE R-SQUARED SPACING: 0.0625
Info: NONBONDED TABLE SIZE: 705 POINTS
TCL: Running for 1500000 steps
ETITLE: TS BOND ANGLE DIHED IMPRP ELECT VDW BOUNDARY MISC KINETIC TOTAL TEMP POTENTIAL TOTALAVG TEMPAVG PRESSURE GPRESSURE VOLUME PRESSAVG GPRESSAVG
ENERGY: 0 1.0769 6.3900 0.1772 0.0000 -11036.5576 1551.1721 0.0000 0.0000 1739.2592 -7738.4822 292.7697 -9477.7414 -7738.4822 292.7697 405.8705 481.6822 31057.1199 405.8705 481.6822
ENERGY: 300000 3.5121 4.2533 1.7175 0.0000 -10920.7022 1480.4199 0.0000 0.0000 1750.6013 -7680.1981 294.6789 -9430.7994 -7684.2587 298.2459 18.9732 74.7105 30774.0148 -22.4980 59.2893
ENERGY: 600000 3.5113 7.0343 0.5316 0.0000 -10922.0977 1489.2425 0.0000 0.0000 1793.0350 -7628.7430 301.8218 -9421.7780 -7662.1767 300.6685 369.0505 488.0659 30602.1979 162.8008 254.7430
ENERGY: 900000 2.2305 4.2788 0.2581 0.0000 -10957.6292 1456.6056 0.0000 0.0000 1803.3004 -7690.9557 303.5498 -9494.2561 -7668.2439 301.0425 110.8928 147.4037 30347.7254 252.2883 330.6637
ENERGY: 1200000 1.6156 7.2176 0.6300 0.0000 -10966.5758 1456.0274 0.0000 0.0000 1740.2831 -7760.8021 292.9421 -9501.0852 -7689.3952 299.6095 -450.1543 -386.2098 31220.4936 161.8372 236.5107
ENERGY: 1500000 1.2191 3.1246 0.4401 0.0000 -10870.0454 1428.3603 0.0000 0.0000 1808.3303 -7628.5711 304.3965 -9436.9013 -7684.8019 299.4871 -397.0475 -324.0010 31258.3886 50.0015 124.7801
TCL: Running FEP window  17: Lambda1 0.19999999999999968 Lambda2 0.1499999999999997 [dLambda -0.04999999999999999]
TCL: Setting parameter firsttimestep to 0
TCL: Setting parameter alchLambda to 0.19999999999999968
Info: NONBONDED TABLE R-SQUARED SPACING: 0.0625
Info: NONBONDED TABLE SIZE: 705 POINTS
TCL: Setting parameter alchLambda2 to 0.1499999999999997
Info: NONBONDED TABLE R-SQUARED SPACING: 0.0625
Info: NONBONDED TABLE SIZE: 705 POINTS
TCL: Running for 1500000 steps
ETITLE: TS BOND ANGLE DIHED IMPRP ELECT VDW BOUNDARY MISC KINETIC TOTAL TEMP POTENTIAL TOTALAVG TEMPAVG PRESSURE GPRESSURE VOLUME PRESSAVG GPRESSAVG
ENERGY: 0 1.2191 3.1246 0.4401 0.0000 -10870.0436 1428.6487 0.0000 0.0000 1807.4519 -7629.1593 304.2486 -9436.6112 -7629.1593 304.2486 -426.6658 -323.7547 31258.3886 -426.6658 -323.7547
ENERGY: 300000 2.7330 5.1089 0.3364 0.0000 -10916.1751 1456.9280 0.0000 0.0000 1775.5567 -7675.5122 298.8797 -9451.0688 -7661.7781 302.1929 -77.1417 -103.5831 30827.6955 -39.6563 0.7469
ENERGY: 600000 1.2312 6.7713 0.5578 0.0000 -11110.5924 1577.4005 0.0000 0.0000 1732.1967 -7792.4349 291.5809 -9524.6316 -7671.6042 299.8975 739.7265 794.0976 30439.9941 59.5457 102.2479
ENERGY: 900000 0.9480 8.1410 1.2379 0.0000 -10861.1953 1456.7256 0.0000 0.0000 1797.3998 -7596.7430 302.5565 -9394.1428 -7667.6768 300.0657 -59.3864 26.6193 31090.3982 177.2988 216.4882
ENERGY: 1200000 3.9665 8.1120 0.3169 0.0000 -11082.4446 1588.6010 0.0000 0.0000 1751.6319 -7729.8163 294.8524 -9481.4482 -7676.0468 299.5906 619.1922 744.8025 30982.8777 210.7434 257.1392
ENERGY: 1500000 2.5348 7.6236 0.7530 0.0000 -11106.2560 1580.9015 0.0000 0.0000 1807.4841 -7706.9590 304.2540 -9514.4431 -7676.2480 299.5368 963.9146 996.4565 30149.9338 195.0465 248.5460
TCL: Running FEP window  18: Lambda1 0.1499999999999997 Lambda2 0.09999999999999969 [dLambda -0.05 ]
TCL: Setting parameter firsttimestep to 0
TCL: Setting parameter alchLambda to 0.1499999999999997
Info: NONBONDED TABLE R-SQUARED SPACING: 0.0625
Info: NONBONDED TABLE SIZE: 705 POINTS
TCL: Setting parameter alchLambda2 to 0.09999999999999969
Info: NONBONDED TABLE R-SQUARED SPACING: 0.0625
Info: NONBONDED TABLE SIZE: 705 POINTS
TCL: Running for 1500000 steps
ETITLE: TS BOND ANGLE DIHED IMPRP ELECT VDW BOUNDARY MISC KINETIC TOTAL TEMP POTENTIAL TOTALAVG TEMPAVG PRESSURE GPRESSURE VOLUME PRESSAVG GPRESSAVG
ENERGY: 0 2.5348 7.6236 0.7530 0.0000 -11106.2566 1580.7024 0.0000 0.0000 1806.6070 -7708.0359 304.1064 -9514.6429 -7708.0359 304.1064 898.2376 990.3463 30149.9338 898.2376 990.3463
ENERGY: 300000 1.1990 7.9089 1.9584 0.0000 -10946.6978 1486.9296 0.0000 0.0000 1797.0999 -7651.6020 302.5060 -9448.7019 -7680.6284 302.8494 233.2792 310.7109 30636.1480 204.3900 296.3078
ENERGY: 600000 1.1681 7.5492 1.9704 0.0000 -11029.6438 1494.2092 0.0000 0.0000 1797.3391 -7727.4078 302.5463 -9524.7468 -7686.6191 302.8752 132.7093 270.5576 30345.8082 -70.9705 18.8560
ENERGY: 900000 0.7389 3.8564 0.2412 0.0000 -10997.4572 1522.3974 0.0000 0.0000 1740.0185 -7730.2049 292.8975 -9470.2234 -7696.5609 300.2899 346.6024 411.9274 30542.0359 -78.5255 -0.5600
ENERGY: 1200000 3.5622 5.8183 0.8357 0.0000 -10796.5933 1313.4600 0.0000 0.0000 1769.6316 -7703.2856 297.8823 -9472.9172 -7688.1864 299.8685 -1233.2315 -1146.1314 30892.5404 -167.3562 -89.7031
ENERGY: 1500000 4.6677 3.2791 1.7777 0.0000 -11132.0778 1617.5424 0.0000 0.0000 1816.2240 -7688.5869 305.7252 -9504.8109 -7682.3186 300.2302 1138.3438 1281.2093 30442.1476 -104.2145 -30.9296
TCL: Running FEP window  19: Lambda1 0.09999999999999969 Lambda2 0.049999999999999684 [dLambda -0.05 ]
TCL: Setting parameter firsttimestep to 0
TCL: Setting parameter alchLambda to 0.09999999999999969
Info: NONBONDED TABLE R-SQUARED SPACING: 0.0625
Info: NONBONDED TABLE SIZE: 705 POINTS
TCL: Setting parameter alchLambda2 to 0.049999999999999684
Info: NONBONDED TABLE R-SQUARED SPACING: 0.0625
Info: NONBONDED TABLE SIZE: 705 POINTS
TCL: Running for 1500000 steps
ETITLE: TS BOND ANGLE DIHED IMPRP ELECT VDW BOUNDARY MISC KINETIC TOTAL TEMP POTENTIAL TOTALAVG TEMPAVG PRESSURE GPRESSURE VOLUME PRESSAVG GPRESSAVG
ENERGY: 0 4.6677 3.2791 1.7777 0.0000 -11132.0808 1616.8521 0.0000 0.0000 1815.3312 -7690.1730 305.5749 -9505.5042 -7690.1730 305.5749 1201.3828 1278.4591 30442.1476 1201.3828 1278.4591
ENERGY: 300000 1.2429 7.7011 1.3644 0.0000 -11000.0243 1440.8882 0.0000 0.0000 1758.6329 -7790.1949 296.0309 -9548.8278 -7721.1475 299.5415 -643.8868 -576.1540 30818.2897 269.2811 338.6270
ENERGY: 600000 0.4190 3.2651 0.3272 0.0000 -10832.2286 1399.9136 0.0000 0.0000 1750.2599 -7678.0437 294.6215 -9428.3037 -7699.3975 299.4450 -421.9246 -332.0989 30871.3756 119.2986 206.5596
ENERGY: 900000 2.4219 6.1928 1.3061 0.0000 -10821.7276 1370.7071 0.0000 0.0000 1790.5668 -7650.5328 301.4063 -9441.0997 -7683.2455 299.5921 -550.4151 -562.5738 30652.3261 -3.7003 63.6876
ENERGY: 1200000 2.8337 4.4914 0.4356 0.0000 -10884.5030 1420.2869 0.0000 0.0000 1809.7324 -7646.7229 304.6325 -9456.4553 -7686.9540 299.2843 -214.2562 -210.7212 30575.7828 88.9694 146.7521
ENERGY: 1500000 0.8413 6.4374 1.1320 0.0000 -10806.0010 1349.4172 0.0000 0.0000 1819.1208 -7629.0523 306.2128 -9448.1731 -7682.5323 300.3614 -975.5395 -875.5836 30770.0969 10.3948 75.0807
TCL: Running FEP window  20: Lambda1 0.049999999999999684 Lambda2 0.0    [dLambda -0.049999999999999684]
TCL: Setting parameter firsttimestep to 0
TCL: Setting parameter alchLambda to 0.049999999999999684
Info: NONBONDED TABLE R-SQUARED SPACING: 0.0625
Info: NONBONDED TABLE SIZE: 705 POINTS
TCL: Setting parameter alchLambda2 to 0.0
Info: NONBONDED TABLE R-SQUARED SPACING: 0.0625
Info: NONBONDED TABLE SIZE: 705 POINTS
TCL: Running for 1500000 steps
ETITLE: TS BOND ANGLE DIHED IMPRP ELECT VDW BOUNDARY MISC KINETIC TOTAL TEMP POTENTIAL TOTALAVG TEMPAVG PRESSURE GPRESSURE VOLUME PRESSAVG GPRESSAVG
ENERGY: 0 0.8413 6.4374 1.1320 0.0000 -10806.0013 1349.5693 0.0000 0.0000 1818.2156 -7629.8057 306.0605 -9448.0214 -7629.8057 306.0605 -965.1222 -877.9935 30770.0969 -965.1222 -877.9935
ENERGY: 300000 2.2555 5.2143 0.6001 0.0000 -11036.6100 1482.4153 0.0000 0.0000 1736.3839 -7809.7410 292.2857 -9546.1249 -7731.4484 297.9209 -32.3759 12.5249 30610.9809 -317.9230 -273.1190
ENERGY: 600000 0.6457 4.6160 2.1940 0.0000 -11043.0354 1529.0404 0.0000 0.0000 1812.1026 -7694.4366 305.0314 -9506.5392 -7698.3750 299.5976 420.1556 506.0942 30392.7734 -115.2800 -63.3965
ENERGY: 900000 0.1888 4.6580 1.2737 0.0000 -10897.9680 1422.8727 0.0000 0.0000 1730.1133 -7738.8615 291.2302 -9468.9749 -7691.9994 299.0178 -529.2502 -468.8947 30995.1531 -188.3729 -129.6760
ENERGY: 1200000 2.5702 8.7955 1.2872 0.0000 -10963.4242 1489.1260 0.0000 0.0000 1789.7241 -7671.9212 301.2645 -9461.6453 -7692.9661 299.4475 78.0560 189.5711 30492.3019 -97.0862 -36.1657
ENERGY: 1500000 0.7435 6.4261 0.2586 0.0000 -10769.3792 1390.8139 0.0000 0.0000 1803.8374 -7567.2997 303.6402 -9371.1371 -7683.0904 299.9649 -419.2789 -302.1500 30956.7976 -138.4983 -74.4796
TCL: Exiting due to exit command.
