Info: SIMULATION PARAMETERS:
Info: TIMESTEP               2
Info: NUMBER OF STEPS        0
Info: STEPS PER CYCLE        10
Info: PERIODIC CELL BASIS 1  34.207 0 0
Info: PERIODIC CELL BASIS 2  0 35.411 0
Info: PERIODIC CELL BASIS 3  0 0 35.897
Info: PERIODIC CELL CENTER   0 0 0
Info: WRAPPING WATERS AROUND PERIODIC BOUNDARIES ON OUTPUT.
Info: WRAPPING ALL CLUSTERS AROUND PERIODIC BOUNDARIES ON OUTPUT.
Info: FIRST LDB TIMESTEP     50
Info: LAST LDB TIMESTEP     -1
Info: HOM BACKGROUND SCALING 1
Info: PME BACKGROUND SCALING 1
Info: MIN ATOMS PER PATCH    40
Info: EMPTY PATCH LOAD       40 ATOMS
Info: INITIAL TEMPERATURE    300
Info: CENTER OF MASS MOVING INITIALLY? NO
Info: DIELECTRIC             1
Info: EXCLUDE                SCALED ONE-FOUR
Info: 1-4 ELECTROSTATICS SCALED BY 0.833333
Info: MODIFIED 1-4 VDW PARAMETERS WILL BE USED
Info: DCD FILENAME           mobley_4039055_equil.dcd
Info: DCD FREQUENCY          100000
Info: DCD FIRST STEP         100000
Info: DCD FILE WILL CONTAIN UNIT CELL DATA
Info: XST FILENAME           mobley_4039055_equil.xst
Info: XST FREQUENCY          100000
Info: NO VELOCITY DCD OUTPUT
Info: NO FORCE DCD OUTPUT
Info: OUTPUT FILENAME        mobley_4039055_equil
Info: BINARY OUTPUT FILES WILL BE USED
Info: RESTART FILENAME       mobley_4039055_equil.restart
Info: RESTART FREQUENCY      100000
Info: BINARY RESTART FILES WILL BE USED
Info: CUTOFF                 9
Info: PAIRLIST DISTANCE      11
Info: PAIRLIST SHRINK RATE   0.01
Info: PAIRLIST GROW RATE     0.01
Info: PAIRLIST TRIGGER       0.3
Info: PAIRLISTS PER CYCLE    2
Info: PAIRLISTS ENABLED
Info: MARGIN                 8
Info: HYDROGEN GROUP CUTOFF  2.5
Info: PATCH DIMENSION        21.5
Info: ENERGY OUTPUT STEPS    100000
Info: ENERGY EVALUATION STEPS    100000
Info: OUTPUT ENERGY PRECISION 4
Info: CROSSTERM ENERGY INCLUDED IN DIHEDRAL
Info: TIMING OUTPUT STEPS    1000000
Info: PRESSURE OUTPUT STEPS  100000
Info: LANGEVIN DYNAMICS ACTIVE
Info: LANGEVIN TEMPERATURE   30
Info: LANGEVIN USING BBK INTEGRATOR
Info: LANGEVIN DAMPING COEFFICIENT IS 1 INVERSE PS
Info: LANGEVIN DYNAMICS APPLIED TO HYDROGENS
Info: LANGEVIN PISTON PRESSURE CONTROL ACTIVE
Info:        TARGET PRESSURE IS 1.01325 BAR
Info:     OSCILLATION PERIOD IS 50 FS
Info:             DECAY TIME IS 25 FS
Info:     PISTON TEMPERATURE IS 300 K
Info:       PRESSURE CONTROL IS GROUP-BASED
Info:    INITIAL STRAIN RATE IS 0 0 0
Info:       CELL FLUCTUATION IS ISOTROPIC
Info: PARTICLE MESH EWALD (PME) ACTIVE
Info: PME TOLERANCE               1e-06
Info: PME EWALD COEFFICIENT       0.348832
Info: PME INTERPOLATION ORDER     4
Info: PME GRID DIMENSIONS         36 36 36
Info: PME MAXIMUM GRID SPACING    1
Info: FULL ELECTROSTATIC EVALUATION FREQUENCY      2
Info: USING VERLET I (r-RESPA) MTS SCHEME.
Info: C1 SPLITTING OF LONG RANGE ELECTROSTATICS
Info: PLACING ATOMS IN PATCHES BY HYDROGEN GROUPS
Info: RIGID BONDS TO HYDROGEN : ALL
Info:         ERROR TOLERANCE : 1e-08
Info:          MAX ITERATIONS : 100
Info: RIGID WATER USING SETTLE ALGORITHM
Info: RANDOM NUMBER SEED     1742719883
Info: USE HYDROGEN BONDS?    NO
Info: Using AMBER format force field!
Info: AMBER PARM FILE        mobley_4039055.prmtop
Info: COORDINATE PDB         mobley_4039055.pdb
Info: Exclusions will be read from PARM file!
Info: SCNB (VDW SCALING)     2
Info: USING ARITHMETIC MEAN TO COMBINE L-J SIGMA PARAMETERS
Info: BINARY COORDINATES     mobley_4039055_min.coor
Info: SUMMARY OF PARAMETERS:
Info: 10 BONDS
Info: 14 ANGLES
Info:   14 HARMONIC
Info:   0 COSINE-BASED
Info: 7 DIHEDRAL
Info: 0 IMPROPER
Info: 0 CROSSTERM
Info: 0 VDW
Info: 36 VDW_PAIRS
Info: 0 NBTHOLE_PAIRS
Info: STRUCTURE SUMMARY:
Info: 2958 ATOMS
Info: 2958 BONDS
Info: 18 ANGLES
Info: 31 DIHEDRALS
Info: 0 IMPROPERS
Info: 0 CROSSTERMS
Info: 2997 EXCLUSIONS
Info: 2949 RIGID BONDS
Info: 5925 DEGREES OF FREEDOM
Info: 991 HYDROGEN GROUPS
Info: 3 ATOMS IN LARGEST HYDROGEN GROUP
Info: 991 MIGRATION GROUPS
Info: 3 ATOMS IN LARGEST MIGRATION GROUP
Info: TOTAL MASS = 17882.7 amu
Info: TOTAL CHARGE = 4.19095e-08 e
Info: MASS DENSITY = 0.682937 g/cm^3
Info: ATOM DENSITY = 0.0680279 atoms/A^3
Info: ADDED 0 IMPLICIT EXCLUSIONS
Info: NONBONDED TABLE R-SQUARED SPACING: 0.0625
Info: NONBONDED TABLE SIZE: 705 POINTS
Info: REMOVING COM VELOCITY -0.191431 0.0289996 0.00479102
TCL: Running for 100000 steps
ETITLE: TS BOND ANGLE DIHED IMPRP ELECT VDW BOUNDARY MISC KINETIC TOTAL TEMP POTENTIAL TOTAL3 TEMPAVG PRESSURE GPRESSURE VOLUME PRESSAVG GPRESSAVG
ENERGY: 0 0.6538 1.0931 12.1352 0.0000 -13862.1519 2434.9882 0.0000 0.0000 1738.4551 -9674.8265 295.3014 -11413.2816 -9674.5014 295.3014 701.0732 734.3400 43482.1825 701.0732 734.3400
ENERGY: 100000 0.5877 1.4106 12.5526 0.0000 -14558.7287 2528.4285 0.0000 0.0000 180.3499 -11835.3994 30.6350 -12015.7493 -11834.9363 30.9809 84.8052 149.8032 29032.8869 3.6301 3.6333
TCL: Running 100000 steps at 60 kelvin.
TCL: Setting parameter langevinTemp to 60
TCL: Running for 100000 steps
ETITLE: TS BOND ANGLE DIHED IMPRP ELECT VDW BOUNDARY MISC KINETIC TOTAL TEMP POTENTIAL TOTAL3 TEMPAVG PRESSURE GPRESSURE VOLUME PRESSAVG GPRESSAVG
ENERGY: 100000 0.5877 1.4106 12.5526 0.0000 -14558.7287 2528.4285 0.0000 0.0000 180.2636 -11835.4857 30.6203 -12015.7493 -11835.0936 30.6203 98.5498 149.8705 29032.8869 98.5498 149.8705
ENERGY: 200000 0.6666 1.4889 12.4601 0.0000 -14431.2100 2517.4372 0.0000 0.0000 352.6835 -11546.4737 59.9083 -11899.1572 -11545.7660 59.9563 379.1566 448.8242 29125.6647 3.8279 3.8830
TCL: Running 100000 steps at 90 kelvin.
TCL: Setting parameter langevinTemp to 90
TCL: Running for 100000 steps
ETITLE: TS BOND ANGLE DIHED IMPRP ELECT VDW BOUNDARY MISC KINETIC TOTAL TEMP POTENTIAL TOTAL3 TEMPAVG PRESSURE GPRESSURE VOLUME PRESSAVG GPRESSAVG
ENERGY: 200000 0.6666 1.4889 12.4601 0.0000 -14431.2100 2517.4372 0.0000 0.0000 352.5165 -11546.6406 59.8800 -11899.1572 -11545.7912 59.8800 388.7469 448.1381 29125.6647 388.7469 448.1381
ENERGY: 300000 2.5566 2.7512 12.9788 0.0000 -14323.5599 2527.6389 0.0000 0.0000 535.6459 -11241.9886 90.9871 -11777.6345 -11240.6247 90.0690 876.9319 925.8534 29058.8055 5.4003 5.3371
TCL: Running 100000 steps at 120 kelvin.
TCL: Setting parameter langevinTemp to 120
TCL: Running for 100000 steps
ETITLE: TS BOND ANGLE DIHED IMPRP ELECT VDW BOUNDARY MISC KINETIC TOTAL TEMP POTENTIAL TOTAL3 TEMPAVG PRESSURE GPRESSURE VOLUME PRESSAVG GPRESSAVG
ENERGY: 300000 2.5566 2.7512 12.9788 0.0000 -14323.5599 2527.6389 0.0000 0.0000 535.3734 -11242.2611 90.9408 -11777.6345 -11241.2808 90.9408 878.9706 926.2663 29058.8055 878.9706 926.2663
ENERGY: 400000 1.5700 2.6521 12.9437 0.0000 -13988.9416 2291.0448 0.0000 0.0000 709.4392 -10971.2917 120.5084 -11680.7309 -10969.9453 119.9196 -738.8585 -714.3742 29404.3296 5.3475 5.3731
TCL: Running 100000 steps at 150 kelvin.
TCL: Setting parameter langevinTemp to 150
TCL: Running for 100000 steps
ETITLE: TS BOND ANGLE DIHED IMPRP ELECT VDW BOUNDARY MISC KINETIC TOTAL TEMP POTENTIAL TOTAL3 TEMPAVG PRESSURE GPRESSURE VOLUME PRESSAVG GPRESSAVG
ENERGY: 400000 1.5700 2.6521 12.9437 0.0000 -13988.9416 2291.0448 0.0000 0.0000 709.1119 -10971.6190 120.4528 -11680.7309 -10970.0693 120.4528 -755.2956 -714.5439 29404.3296 -755.2956 -714.5439
ENERGY: 500000 0.6041 2.1522 12.8179 0.0000 -13731.4284 2264.4081 0.0000 0.0000 861.3341 -10590.1120 146.3099 -11451.4461 -10588.6260 149.9902 -50.5860 -7.0243 29318.4235 5.0181 5.0980
TCL: Running 100000 steps at 180 kelvin.
TCL: Setting parameter langevinTemp to 180
TCL: Running for 100000 steps
ETITLE: TS BOND ANGLE DIHED IMPRP ELECT VDW BOUNDARY MISC KINETIC TOTAL TEMP POTENTIAL TOTAL3 TEMPAVG PRESSURE GPRESSURE VOLUME PRESSAVG GPRESSAVG
ENERGY: 500000 0.6041 2.1522 12.8179 0.0000 -13731.4284 2264.4081 0.0000 0.0000 860.8951 -10590.5509 146.2353 -11451.4461 -10588.9179 146.2353 -80.9278 -7.6166 29318.4235 -80.9278 -7.6166
ENERGY: 600000 3.2936 2.4724 13.4390 0.0000 -13182.6756 1961.3238 0.0000 0.0000 1046.8021 -10155.3446 177.8143 -11202.1467 -10152.3017 179.9969 -1342.7444 -1278.2350 28965.9284 3.9882 3.9090
TCL: Running 100000 steps at 210 kelvin.
TCL: Setting parameter langevinTemp to 210
TCL: Running for 100000 steps
ETITLE: TS BOND ANGLE DIHED IMPRP ELECT VDW BOUNDARY MISC KINETIC TOTAL TEMP POTENTIAL TOTAL3 TEMPAVG PRESSURE GPRESSURE VOLUME PRESSAVG GPRESSAVG
ENERGY: 600000 3.2936 2.4724 13.4390 0.0000 -13182.6756 1961.3238 0.0000 0.0000 1046.2776 -10155.8691 177.7252 -11202.1467 -10153.9424 177.7252 -1350.9823 -1277.9015 28965.9284 -1350.9823 -1277.9015
ENERGY: 700000 0.8151 2.3670 13.2635 0.0000 -12601.6085 1920.1281 0.0000 0.0000 1289.7756 -9375.2593 219.0868 -10665.0349 -9372.3839 210.1978 221.6447 286.4606 29013.5543 3.7740 3.8529
TCL: Running 100000 steps at 240 kelvin.
TCL: Setting parameter langevinTemp to 240
TCL: Running for 100000 steps
ETITLE: TS BOND ANGLE DIHED IMPRP ELECT VDW BOUNDARY MISC KINETIC TOTAL TEMP POTENTIAL TOTAL3 TEMPAVG PRESSURE GPRESSURE VOLUME PRESSAVG GPRESSAVG
ENERGY: 700000 0.8151 2.3670 13.2635 0.0000 -12601.6085 1920.1281 0.0000 0.0000 1289.1817 -9375.8532 218.9859 -10665.0349 -9373.2009 218.9859 210.4709 285.9075 29013.5543 210.4709 285.9075
ENERGY: 800000 2.5117 1.4747 13.6994 0.0000 -11965.6980 1683.0980 0.0000 0.0000 1422.7278 -8842.1864 241.6706 -10264.9142 -8838.8536 240.3485 -343.3411 -257.1968 29374.4133 2.6510 2.4474
TCL: Running 100000 steps at 270 kelvin.
TCL: Setting parameter langevinTemp to 270
TCL: Running for 100000 steps
ETITLE: TS BOND ANGLE DIHED IMPRP ELECT VDW BOUNDARY MISC KINETIC TOTAL TEMP POTENTIAL TOTAL3 TEMPAVG PRESSURE GPRESSURE VOLUME PRESSAVG GPRESSAVG
ENERGY: 800000 2.5117 1.4747 13.6994 0.0000 -11965.6980 1683.0980 0.0000 0.0000 1422.0002 -8842.9140 241.5470 -10264.9142 -8840.4634 241.5470 -335.2959 -258.3356 29374.4133 -335.2959 -258.3356
ENERGY: 900000 2.9964 2.8548 15.4416 0.0000 -11465.9002 1599.9912 0.0000 0.0000 1576.4558 -8268.1604 267.7835 -9844.6163 -8265.9446 269.5769 333.9987 454.2033 29437.7151 3.4452 3.4092
TCL: Running 1000000 steps at 300 kelvin.
TCL: Setting parameter langevinTemp to 300
TCL: Running for 1000000 steps
ETITLE: TS BOND ANGLE DIHED IMPRP ELECT VDW BOUNDARY MISC KINETIC TOTAL TEMP POTENTIAL TOTAL3 TEMPAVG PRESSURE GPRESSURE VOLUME PRESSAVG GPRESSAVG
ENERGY: 900000 2.9964 2.8548 15.4416 0.0000 -11465.9002 1599.9912 0.0000 0.0000 1575.6942 -8268.9221 267.6541 -9844.6163 -8266.1812 267.6541 362.8728 451.7711 29437.7151 362.8728 451.7711
ENERGY: 1100000 1.2138 3.0214 14.2009 0.0000 -10868.1976 1415.2177 0.0000 0.0000 1797.1146 -7637.4293 305.2656 -9434.5439 -7633.9063 299.1921 131.3860 177.4658 30126.4157 3.8109 3.6783
ENERGY: 1300000 3.9146 4.0627 13.5941 0.0000 -10845.8301 1362.3725 0.0000 0.0000 1797.2242 -7664.6620 305.2842 -9461.8862 -7658.2520 300.0897 -660.6073 -641.0057 30467.5155 3.2957 3.4110
ENERGY: 1500000 4.6529 2.6631 15.3936 0.0000 -10985.2513 1474.0901 0.0000 0.0000 1756.8997 -7731.5520 298.4345 -9488.4516 -7726.6900 300.5369 281.0315 359.3184 30309.9399 3.3538 3.2035
ENERGY: 1700000 4.7872 3.0210 14.0322 0.0000 -10929.2367 1485.1635 0.0000 0.0000 1778.1935 -7644.0393 302.0515 -9422.2328 -7640.7825 300.2961 555.5206 665.2491 30298.2763 3.1555 3.2294
ENERGY: 1900000 1.6798 3.8814 14.8297 0.0000 -10980.7617 1470.4521 0.0000 0.0000 1752.4602 -7737.4585 297.6804 -9489.9187 -7735.9609 300.5075 232.9798 280.2586 30107.0875 3.4433 3.3934
TCL: Exiting due to exit command.
