Info: SIMULATION PARAMETERS:
Info: TIMESTEP               2
Info: NUMBER OF STEPS        0
Info: STEPS PER CYCLE        10
Info: PERIODIC CELL BASIS 1  31.7682 0 0
Info: PERIODIC CELL BASIS 2  0 30.2286 0
Info: PERIODIC CELL BASIS 3  0 0 31.3809
Info: PERIODIC CELL CENTER   0 0 0
Info: WRAPPING WATERS AROUND PERIODIC BOUNDARIES ON OUTPUT.
Info: WRAPPING ALL CLUSTERS AROUND PERIODIC BOUNDARIES ON OUTPUT.
Info: FIRST LDB TIMESTEP     50
Info: LAST LDB TIMESTEP     -1
Info: HOM BACKGROUND SCALING 1
Info: PME BACKGROUND SCALING 1
Info: MIN ATOMS PER PATCH    40
Info: EMPTY PATCH LOAD       40 ATOMS
Info: VELOCITY FILE          mobley_9979854_equil.vel
Info: CENTER OF MASS MOVING INITIALLY? NO
Info: DIELECTRIC             1
Info: EXCLUDE                SCALED ONE-FOUR
Info: 1-4 ELECTROSTATICS SCALED BY 0.833333
Info: MODIFIED 1-4 VDW PARAMETERS WILL BE USED
Info: DCD FILENAME           mobley_9979854_prod.dcd
Info: DCD FREQUENCY          100000
Info: DCD FIRST STEP         100000
Info: DCD FILE WILL CONTAIN UNIT CELL DATA
Info: XST FILENAME           mobley_9979854_prod.xst
Info: XST FREQUENCY          100000
Info: NO VELOCITY DCD OUTPUT
Info: NO FORCE DCD OUTPUT
Info: OUTPUT FILENAME        mobley_9979854_prod
Info: BINARY OUTPUT FILES WILL BE USED
Info: RESTART FILENAME       mobley_9979854_prod.restart
Info: RESTART FREQUENCY      100000
Info: BINARY RESTART FILES WILL BE USED
Info: CUTOFF                 9
Info: PAIRLIST DISTANCE      11
Info: PAIRLIST SHRINK RATE   0.01
Info: PAIRLIST GROW RATE     0.01
Info: PAIRLIST TRIGGER       0.3
Info: PAIRLISTS PER CYCLE    2
Info: PAIRLISTS ENABLED
Info: MARGIN                 2
Info: HYDROGEN GROUP CUTOFF  2.5
Info: PATCH DIMENSION        15.5
Info: ENERGY OUTPUT STEPS    100000
Info: ENERGY EVALUATION STEPS    100000
Info: OUTPUT ENERGY PRECISION 4
Info: CROSSTERM ENERGY INCLUDED IN DIHEDRAL
Info: TIMING OUTPUT STEPS    1000000
Info: PRESSURE OUTPUT STEPS  100000
Info: ALCHEMICAL FEP ON
Info: FEP CURRENT LAMBDA VALUE     0
Info: FEP COMPARISON LAMBDA VALUE  0.05
Info: FEP INTRA-ALCHEMICAL NON-BONDED INTERACTIONS WILL BE RETAINED
Info: FEP INTRA-ALCHEMICAL BONDED INTERACTIONS WILL BE RETAINED
Info: FEP VDW SHIFTING COEFFICIENT 5
Info: FEP ELEC. ACTIVE FOR ANNIHILATED PARTICLES BETWEEN LAMBDA = 0 AND LAMBDA = 0.5
Info: FEP ELEC. ACTIVE FOR EXNIHILATED PARTICLES BETWEEN LAMBDA = 0.5 AND LAMBDA = 1
Info: FEP VDW ACTIVE FOR ANNIHILATED PARTICLES BETWEEN LAMBDA = 0 AND LAMBDA = 1
Info: FEP VDW ACTIVE FOR EXNIHILATED PARTICLES BETWEEN LAMBDA = 0 AND LAMBDA = 1
Info: FEP BOND ACTIVE FOR ANNIHILATED PARTICLES BETWEEN LAMBDA = 1 AND LAMBDA = 1
Info: FEP BOND ACTIVE FOR EXNIHILATED PARTICLES BETWEEN LAMBDA = 0 AND LAMBDA = 0
Info: LANGEVIN DYNAMICS ACTIVE
Info: LANGEVIN TEMPERATURE   300
Info: LANGEVIN USING BBK INTEGRATOR
Info: LANGEVIN DAMPING COEFFICIENT IS 1 INVERSE PS
Info: LANGEVIN DYNAMICS APPLIED TO HYDROGENS
Info: LANGEVIN PISTON PRESSURE CONTROL ACTIVE
Info:        TARGET PRESSURE IS 1.01325 BAR
Info:     OSCILLATION PERIOD IS 50 FS
Info:             DECAY TIME IS 25 FS
Info:     PISTON TEMPERATURE IS 300 K
Info:       PRESSURE CONTROL IS GROUP-BASED
Info:    INITIAL STRAIN RATE IS -7.27097e-06 -7.27097e-06 -7.27097e-06
Info:       CELL FLUCTUATION IS ISOTROPIC
Info: PARTICLE MESH EWALD (PME) ACTIVE
Info: PME TOLERANCE               1e-06
Info: PME EWALD COEFFICIENT       0.348832
Info: PME INTERPOLATION ORDER     4
Info: PME GRID DIMENSIONS         32 32 32
Info: PME MAXIMUM GRID SPACING    1
Info: PME CALCULATION WILL BE PERFORMED ON GPU
Info: FULL ELECTROSTATIC EVALUATION FREQUENCY      2
Info: USING VERLET I (r-RESPA) MTS SCHEME.
Info: C1 SPLITTING OF LONG RANGE ELECTROSTATICS
Info: PLACING ATOMS IN PATCHES BY HYDROGEN GROUPS
Info: RIGID BONDS TO HYDROGEN : ALL
Info:         ERROR TOLERANCE : 1e-08
Info:          MAX ITERATIONS : 100
Info: RIGID WATER USING SETTLE ALGORITHM
Info: RANDOM NUMBER SEED     1742563852
Info: USE HYDROGEN BONDS?    NO
Info: Using AMBER format force field!
Info: AMBER PARM FILE        mobley_9979854.prmtop
Info: COORDINATE PDB         mobley_9979854.pdb
Info: Exclusions will be read from PARM file!
Info: SCNB (VDW SCALING)     2
Info: USING ARITHMETIC MEAN TO COMBINE L-J SIGMA PARAMETERS
Info: BINARY COORDINATES     mobley_9979854_equil.coor
Info: SUMMARY OF PARAMETERS:
Info: 8 BONDS
Info: 9 ANGLES
Info:   9 HARMONIC
Info:   0 COSINE-BASED
Info: 7 DIHEDRAL
Info: 0 IMPROPER
Info: 0 CROSSTERM
Info: 0 VDW
Info: 36 VDW_PAIRS
Info: 0 NBTHOLE_PAIRS
Info: To read alchdata from file: mobley_9979854.pdb
Info: To read alchflag data from column: 5
Info: STRUCTURE SUMMARY:
Info: 2910 ATOMS
Info: 2909 BONDS
Info: 19 ANGLES
Info: 24 DIHEDRALS
Info: 0 IMPROPERS
Info: 0 CROSSTERMS
Info: 2949 EXCLUSIONS
Info: 2903 RIGID BONDS
Info: ALCH: 0 ATOMS TO DISAPPEAR IN FINAL STATE
Info: ALCH: 12 ATOMS TO APPEAR IN FINAL STATE
Info: 5827 DEGREES OF FREEDOM
Info: 973 HYDROGEN GROUPS
Info: 4 ATOMS IN LARGEST HYDROGEN GROUP
Info: 973 MIGRATION GROUPS
Info: 4 ATOMS IN LARGEST MIGRATION GROUP
Info: TOTAL MASS = 17517.5 amu
Info: TOTAL CHARGE = 0.000199988 e
Info: MASS DENSITY = 0.965286 g/cm^3
Info: ATOM DENSITY = 0.0965643 atoms/A^3
Info: ADDED 0 IMPLICIT EXCLUSIONS
Info: NONBONDED TABLE R-SQUARED SPACING: 0.0625
Info: NONBONDED TABLE SIZE: 705 POINTS
Info: REMOVING COM VELOCITY 0.0507434 0.141314 0.0690237
Info: Use 3D box decompostion in PME FFT.
Info: Updated CUDA force table with 4096 elements.
Info: Updated CUDA LJ table with 8 x 8 elements.
Info: Found 15 unique exclusion lists needing 28 bytes
TCL: Running for 1500000 steps
ETITLE: TS BOND ANGLE DIHED IMPRP ELECT VDW BOUNDARY MISC KINETIC TOTAL TEMP POTENTIAL TOTALAVG TEMPAVG PRESSURE GPRESSURE VOLUME PRESSAVG GPRESSAVG
ENERGY: 0 2.0216 3.1501 1.1360 0.0000 -10508.1176 1385.0532 0.0000 0.0000 1749.6348 -7367.1219 302.1988 -9116.7567 -7367.1219 302.1988 -536.3287 -462.4937 30135.3495 -536.3287 -462.4937
ENERGY: 300000 2.6588 6.2024 1.0025 0.0000 -10445.2049 1445.2270 0.0000 0.0000 1748.6320 -7241.4822 302.0256 -8990.1142 -7314.5459 299.4087 338.7534 461.7003 30223.9338 -45.9231 41.3684
ENERGY: 600000 2.3291 2.3558 0.7463 0.0000 -10625.0468 1449.9065 0.0000 0.0000 1718.9282 -7450.7809 296.8951 -9169.7091 -7347.4594 299.3663 95.9021 110.9257 29643.7141 -146.1299 -84.3951
ENERGY: 900000 1.1328 5.6170 0.6574 0.0000 -10598.6550 1476.2487 0.0000 0.0000 1731.7819 -7383.2171 299.1153 -9114.9990 -7357.3669 298.5526 372.5895 422.1431 29746.9947 -14.4313 46.3418
ENERGY: 1200000 3.1190 3.6503 1.8400 0.0000 -10471.2184 1360.6939 0.0000 0.0000 1674.1327 -7427.7825 289.1580 -9101.9151 -7357.1281 297.8494 -744.3877 -698.5053 30192.3278 -9.0903 55.2611
ENERGY: 1500000 2.4795 6.1420 0.8763 0.0000 -10446.4433 1290.5653 0.0000 0.0000 1781.1601 -7365.2201 307.6439 -9146.3802 -7364.7124 298.3678 -1250.7020 -1143.6294 29984.2429 -110.9294 -41.0290
TCL: Running FEP window   2: Lambda1 0.05   Lambda2 0.1    [dLambda 0.05  ]
TCL: Setting parameter firsttimestep to 0
TCL: Setting parameter alchLambda to 0.05
Info: NONBONDED TABLE R-SQUARED SPACING: 0.0625
Info: NONBONDED TABLE SIZE: 705 POINTS
TCL: Setting parameter alchLambda2 to 0.1
Info: NONBONDED TABLE R-SQUARED SPACING: 0.0625
Info: NONBONDED TABLE SIZE: 705 POINTS
TCL: Running for 1500000 steps
ETITLE: TS BOND ANGLE DIHED IMPRP ELECT VDW BOUNDARY MISC KINETIC TOTAL TEMP POTENTIAL TOTALAVG TEMPAVG PRESSURE GPRESSURE VOLUME PRESSAVG GPRESSAVG
ENERGY: 0 2.4795 6.1420 0.8763 0.0000 -10446.4435 1290.3373 0.0000 0.0000 1780.2866 -7366.3219 307.4930 -9146.6085 -7366.3219 307.4930 -1220.7543 -1142.8292 29984.2429 -1220.7543 -1142.8292
ENERGY: 300000 3.2461 5.5298 1.8037 0.0000 -10534.9108 1437.6209 0.0000 0.0000 1747.3873 -7339.3229 301.8106 -9086.7102 -7363.8320 299.1547 108.2353 220.5585 29635.7025 -690.8291 -627.4062
ENERGY: 600000 0.8417 5.9992 1.4049 0.0000 -10445.2443 1380.0259 0.0000 0.0000 1710.0316 -7346.9410 295.3585 -9056.9726 -7333.1579 300.5641 -355.6762 -279.0916 30203.7360 -492.9122 -423.5544
ENERGY: 900000 1.4867 4.1979 1.2764 0.0000 -10538.1158 1425.7799 0.0000 0.0000 1718.6192 -7386.7558 296.8418 -9105.3750 -7338.8407 300.7713 -192.2845 -138.5009 30174.1755 -376.8742 -301.2239
ENERGY: 1200000 1.9764 2.7358 0.8306 0.0000 -10528.1799 1404.2902 0.0000 0.0000 1731.5951 -7386.7518 299.0830 -9118.3469 -7344.6297 300.8454 -8.1811 16.2603 29591.4098 -272.3323 -206.5901
ENERGY: 1500000 1.8207 5.1505 1.2095 0.0000 -10457.8032 1431.7135 0.0000 0.0000 1791.9376 -7225.9714 309.5054 -9017.9090 -7334.9777 301.6607 272.0953 368.0616 29946.4900 -186.5594 -124.1673
TCL: Running FEP window   3: Lambda1 0.1    Lambda2 0.15000000000000002 [dLambda 0.05000000000000002]
TCL: Setting parameter firsttimestep to 0
TCL: Setting parameter alchLambda to 0.1
Info: NONBONDED TABLE R-SQUARED SPACING: 0.0625
Info: NONBONDED TABLE SIZE: 705 POINTS
TCL: Setting parameter alchLambda2 to 0.15000000000000002
Info: NONBONDED TABLE R-SQUARED SPACING: 0.0625
Info: NONBONDED TABLE SIZE: 705 POINTS
TCL: Running for 1500000 steps
ETITLE: TS BOND ANGLE DIHED IMPRP ELECT VDW BOUNDARY MISC KINETIC TOTAL TEMP POTENTIAL TOTALAVG TEMPAVG PRESSURE GPRESSURE VOLUME PRESSAVG GPRESSAVG
ENERGY: 0 1.8207 5.1505 1.2095 0.0000 -10457.8030 1432.2500 0.0000 0.0000 1791.0503 -7226.3221 309.3522 -9017.3723 -7226.3221 309.3522 287.0452 369.4392 29946.4900 287.0452 369.4392
ENERGY: 300000 2.8006 4.4809 0.8973 0.0000 -10506.1499 1416.8960 0.0000 0.0000 1709.9776 -7371.0976 295.3492 -9081.0752 -7340.0790 301.6204 -149.6252 -116.9800 30119.1968 -76.7615 -25.9520
ENERGY: 600000 3.2378 5.0525 0.7314 0.0000 -10608.9775 1502.0020 0.0000 0.0000 1738.8310 -7359.1229 300.3328 -9097.9539 -7354.2820 300.6704 738.7155 876.0581 29480.6235 11.5585 91.5164
ENERGY: 900000 1.7122 5.0883 0.7700 0.0000 -10401.7957 1398.7808 0.0000 0.0000 1703.4176 -7292.0268 294.2161 -8995.4444 -7350.6682 298.8542 -89.3147 -42.3659 30072.0151 75.9719 147.5005
ENERGY: 1200000 1.9482 5.4692 3.1500 0.0000 -10405.4541 1364.4947 0.0000 0.0000 1801.1507 -7229.2414 311.0967 -9030.3921 -7344.2329 300.3600 -347.3914 -342.0012 30147.0878 53.9835 118.6171
ENERGY: 1500000 2.6541 6.3217 1.3109 0.0000 -10383.9464 1355.3630 0.0000 0.0000 1764.2455 -7254.0512 304.7224 -9018.2967 -7342.9702 300.7324 -79.5087 -62.7723 29684.2363 9.6411 64.9958
TCL: Running FEP window   4: Lambda1 0.15000000000000002 Lambda2 0.2    [dLambda 0.04999999999999999]
TCL: Setting parameter firsttimestep to 0
TCL: Setting parameter alchLambda to 0.15000000000000002
Info: NONBONDED TABLE R-SQUARED SPACING: 0.0625
Info: NONBONDED TABLE SIZE: 705 POINTS
TCL: Setting parameter alchLambda2 to 0.2
Info: NONBONDED TABLE R-SQUARED SPACING: 0.0625
Info: NONBONDED TABLE SIZE: 705 POINTS
TCL: Running for 1500000 steps
ETITLE: TS BOND ANGLE DIHED IMPRP ELECT VDW BOUNDARY MISC KINETIC TOTAL TEMP POTENTIAL TOTALAVG TEMPAVG PRESSURE GPRESSURE VOLUME PRESSAVG GPRESSAVG
ENERGY: 0 2.6541 6.3217 1.3109 0.0000 -10383.9468 1355.8765 0.0000 0.0000 1763.3937 -7254.3898 304.5753 -9017.7836 -7254.3898 304.5753 -149.0246 -59.1641 29684.2363 -149.0246 -59.1641
ENERGY: 300000 4.1956 5.7095 2.7004 0.0000 -10440.9746 1402.6254 0.0000 0.0000 1726.4978 -7299.2460 298.2026 -9025.7437 -7282.2000 300.8281 -464.9108 -388.8334 30461.9377 -182.2274 -123.5658
ENERGY: 600000 2.3100 3.8703 0.7306 0.0000 -10437.6657 1385.9667 0.0000 0.0000 1759.6653 -7285.1228 303.9313 -9044.7881 -7286.9631 301.8208 -132.4715 -59.6970 29582.5503 -172.4211 -119.1406
ENERGY: 900000 2.4322 5.2492 1.8255 0.0000 -10551.3944 1387.5469 0.0000 0.0000 1767.4598 -7386.8807 305.2776 -9154.3405 -7305.1617 301.6857 -392.4960 -384.0263 29900.2858 -15.7668 25.6730
ENERGY: 1200000 3.8768 3.9686 0.8843 0.0000 -10324.4084 1269.4321 0.0000 0.0000 1716.7588 -7329.4878 296.5205 -9046.2467 -7318.2376 300.9426 -1086.8446 -1024.8228 29794.4742 -150.5467 -99.0105
ENERGY: 1500000 1.6271 4.5984 0.9985 0.0000 -10510.0131 1433.7765 0.0000 0.0000 1738.0990 -7330.9136 300.2064 -9069.0126 -7323.5406 300.0774 260.1569 302.7388 29787.2193 -77.1935 -29.3928
TCL: Running FEP window   5: Lambda1 0.2    Lambda2 0.25   [dLambda 0.04999999999999999]
TCL: Setting parameter firsttimestep to 0
TCL: Setting parameter alchLambda to 0.2
Info: NONBONDED TABLE R-SQUARED SPACING: 0.0625
Info: NONBONDED TABLE SIZE: 705 POINTS
TCL: Setting parameter alchLambda2 to 0.25
Info: NONBONDED TABLE R-SQUARED SPACING: 0.0625
Info: NONBONDED TABLE SIZE: 705 POINTS
TCL: Running for 1500000 steps
ETITLE: TS BOND ANGLE DIHED IMPRP ELECT VDW BOUNDARY MISC KINETIC TOTAL TEMP POTENTIAL TOTALAVG TEMPAVG PRESSURE GPRESSURE VOLUME PRESSAVG GPRESSAVG
ENERGY: 0 1.6271 4.5984 0.9985 0.0000 -10510.0138 1434.8436 0.0000 0.0000 1737.2207 -7330.7255 300.0546 -9067.9461 -7330.7255 300.0546 245.3781 310.9846 29787.2193 245.3781 310.9846
ENERGY: 300000 1.1220 8.2719 1.0132 0.0000 -10493.2775 1399.0785 0.0000 0.0000 1792.8179 -7290.9739 309.6575 -9083.7918 -7341.1498 302.9207 -339.5739 -274.0131 30218.6192 -407.3362 -344.4008
ENERGY: 600000 0.7790 6.5361 0.8961 0.0000 -10552.4278 1413.7544 0.0000 0.0000 1719.3533 -7411.1089 296.9686 -9130.4622 -7357.6857 302.6660 -278.0072 -294.2470 30314.8931 -315.2694 -257.4304
ENERGY: 900000 0.6470 9.5780 1.0584 0.0000 -10421.5894 1379.0878 0.0000 0.0000 1739.3342 -7291.8840 300.4197 -9031.2181 -7357.2642 301.8220 37.6354 162.5932 29724.8949 -220.4221 -145.0876
ENERGY: 1200000 2.0723 4.0942 0.8788 0.0000 -10503.5586 1413.9913 0.0000 0.0000 1784.2436 -7298.2784 308.1765 -9082.5220 -7347.2669 302.2117 70.6661 120.2387 29591.0000 -189.9149 -115.5735
ENERGY: 1500000 1.9083 6.3784 2.4712 0.0000 -10522.3815 1414.1416 0.0000 0.0000 1766.1526 -7331.3294 305.0518 -9097.4820 -7347.0178 301.6689 72.8634 171.0810 29677.9050 -134.7709 -64.3872
TCL: Running FEP window   6: Lambda1 0.25   Lambda2 0.3    [dLambda 0.04999999999999999]
TCL: Setting parameter firsttimestep to 0
TCL: Setting parameter alchLambda to 0.25
Info: NONBONDED TABLE R-SQUARED SPACING: 0.0625
Info: NONBONDED TABLE SIZE: 705 POINTS
TCL: Setting parameter alchLambda2 to 0.3
Info: NONBONDED TABLE R-SQUARED SPACING: 0.0625
Info: NONBONDED TABLE SIZE: 705 POINTS
TCL: Running for 1500000 steps
ETITLE: TS BOND ANGLE DIHED IMPRP ELECT VDW BOUNDARY MISC KINETIC TOTAL TEMP POTENTIAL TOTALAVG TEMPAVG PRESSURE GPRESSURE VOLUME PRESSAVG GPRESSAVG
ENERGY: 0 1.9083 6.3784 2.4712 0.0000 -10522.3828 1413.8280 0.0000 0.0000 1765.2719 -7332.5250 304.8997 -9097.7969 -7332.5250 304.8997 94.7628 172.3266 29677.9050 94.7628 172.3266
ENERGY: 300000 2.8565 3.9508 0.6296 0.0000 -10589.1355 1458.9105 0.0000 0.0000 1756.6144 -7366.1736 303.4044 -9122.7880 -7372.1867 301.6737 479.0632 520.2570 29201.4637 215.9009 264.0587
ENERGY: 600000 1.0025 5.5499 1.2001 0.0000 -10470.4856 1402.2383 0.0000 0.0000 1765.7216 -7294.7732 304.9774 -9060.4948 -7366.4816 300.4973 40.8066 102.6957 29821.5456 243.9049 302.8970
ENERGY: 900000 2.2261 6.6218 1.0610 0.0000 -10312.7744 1362.9390 0.0000 0.0000 1725.9756 -7213.9509 298.1124 -8939.9265 -7339.6898 300.6469 -173.5509 -157.2610 30278.0548 84.2454 140.0429
ENERGY: 1200000 1.7223 3.1186 1.3872 0.0000 -10558.2095 1476.7872 0.0000 0.0000 1758.4117 -7316.7825 303.7148 -9075.1942 -7335.8826 301.2980 494.7790 475.6138 29959.7689 94.4584 146.7431
ENERGY: 1500000 3.9017 8.4118 2.0234 0.0000 -10534.5224 1480.7891 0.0000 0.0000 1721.1605 -7318.2359 297.2807 -9039.3965 -7329.9461 300.8615 609.2354 637.4817 29870.9796 50.8101 107.4949
TCL: Running FEP window   7: Lambda1 0.3    Lambda2 0.35   [dLambda 0.04999999999999999]
TCL: Setting parameter firsttimestep to 0
TCL: Setting parameter alchLambda to 0.3
Info: NONBONDED TABLE R-SQUARED SPACING: 0.0625
Info: NONBONDED TABLE SIZE: 705 POINTS
TCL: Setting parameter alchLambda2 to 0.35
Info: NONBONDED TABLE R-SQUARED SPACING: 0.0625
Info: NONBONDED TABLE SIZE: 705 POINTS
TCL: Running for 1500000 steps
ETITLE: TS BOND ANGLE DIHED IMPRP ELECT VDW BOUNDARY MISC KINETIC TOTAL TEMP POTENTIAL TOTALAVG TEMPAVG PRESSURE GPRESSURE VOLUME PRESSAVG GPRESSAVG
ENERGY: 0 3.9017 8.4118 2.0234 0.0000 -10534.5222 1481.0062 0.0000 0.0000 1720.2883 -7318.8909 297.1301 -9039.1792 -7318.8909 297.1301 559.7934 642.8851 29870.9796 559.7934 642.8851
ENERGY: 300000 3.3193 2.5881 1.9106 0.0000 -10579.0232 1420.9032 0.0000 0.0000 1775.7889 -7374.5131 306.7162 -9150.3020 -7370.7446 300.4443 -225.4395 -182.9227 29938.2460 36.2121 78.1472
ENERGY: 600000 0.9003 5.8661 0.8824 0.0000 -10359.8847 1348.4265 0.0000 0.0000 1705.3898 -7298.4196 294.5568 -9003.8095 -7364.3348 298.9436 -295.3440 -244.5332 29683.2993 29.0257 75.2662
ENERGY: 900000 1.8821 5.2798 1.3670 0.0000 -10439.7080 1369.1852 0.0000 0.0000 1724.3100 -7337.6838 297.8247 -9061.9938 -7354.0388 299.8555 -603.1065 -556.0314 30308.3729 -40.2785 23.5426
ENERGY: 1200000 0.2587 9.8643 0.8463 0.0000 -10425.6168 1328.2656 0.0000 0.0000 1759.2349 -7327.1470 303.8570 -9086.3819 -7357.3450 300.2055 -734.8886 -702.4381 30072.3038 -60.4578 1.5750
ENERGY: 1500000 4.4430 4.2179 0.8519 0.0000 -10692.2448 1533.1544 0.0000 0.0000 1771.0852 -7378.4923 305.9038 -9149.5775 -7360.3071 300.3532 670.4472 755.1136 29715.4494 -34.3560 26.7116
TCL: Running FEP window   8: Lambda1 0.35   Lambda2 0.39999999999999997 [dLambda 0.04999999999999999]
TCL: Setting parameter firsttimestep to 0
TCL: Setting parameter alchLambda to 0.35
Info: NONBONDED TABLE R-SQUARED SPACING: 0.0625
Info: NONBONDED TABLE SIZE: 705 POINTS
TCL: Setting parameter alchLambda2 to 0.39999999999999997
Info: NONBONDED TABLE R-SQUARED SPACING: 0.0625
Info: NONBONDED TABLE SIZE: 705 POINTS
TCL: Running for 1500000 steps
ETITLE: TS BOND ANGLE DIHED IMPRP ELECT VDW BOUNDARY MISC KINETIC TOTAL TEMP POTENTIAL TOTALAVG TEMPAVG PRESSURE GPRESSURE VOLUME PRESSAVG GPRESSAVG
ENERGY: 0 4.4430 4.2179 0.8519 0.0000 -10692.2448 1532.7892 0.0000 0.0000 1770.2234 -7379.7194 305.7549 -9149.9428 -7379.7194 305.7549 673.4401 756.6216 29715.4494 673.4401 756.6216
ENERGY: 300000 5.7661 6.5897 0.8592 0.0000 -10497.0150 1392.0076 0.0000 0.0000 1688.1136 -7403.6787 291.5728 -9091.7923 -7350.9151 300.2617 -462.2571 -412.1151 30108.0111 -0.0604 61.9706
ENERGY: 600000 2.5375 7.9852 0.9022 0.0000 -10446.7552 1380.2170 0.0000 0.0000 1719.0613 -7336.0519 296.9181 -9055.1132 -7346.3689 301.1468 -69.2117 -43.5819 29849.2511 31.7001 88.1225
ENERGY: 900000 0.4027 6.1157 1.2607 0.0000 -10395.2947 1377.8093 0.0000 0.0000 1792.1092 -7217.5971 309.5351 -9009.7063 -7335.3369 302.0883 -175.8249 -63.5074 30101.5147 -14.4525 41.0079
ENERGY: 1200000 2.0442 4.3611 1.0865 0.0000 -10333.9640 1337.8248 0.0000 0.0000 1732.7145 -7255.9327 299.2763 -8988.6472 -7332.5590 301.2184 -616.8351 -570.4783 30277.6349 -103.3821 -55.1796
ENERGY: 1500000 0.9758 3.7802 2.0152 0.0000 -10599.3500 1476.0402 0.0000 0.0000 1755.8471 -7360.6917 303.2718 -9116.5388 -7337.0959 301.9978 397.7794 492.3805 29625.2295 51.4998 101.3095
TCL: Running FEP window   9: Lambda1 0.39999999999999997 Lambda2 0.44999999999999996 [dLambda 0.04999999999999999]
TCL: Setting parameter firsttimestep to 0
TCL: Setting parameter alchLambda to 0.39999999999999997
Info: NONBONDED TABLE R-SQUARED SPACING: 0.0625
Info: NONBONDED TABLE SIZE: 705 POINTS
TCL: Setting parameter alchLambda2 to 0.44999999999999996
Info: NONBONDED TABLE R-SQUARED SPACING: 0.0625
Info: NONBONDED TABLE SIZE: 705 POINTS
TCL: Running for 1500000 steps
ETITLE: TS BOND ANGLE DIHED IMPRP ELECT VDW BOUNDARY MISC KINETIC TOTAL TEMP POTENTIAL TOTALAVG TEMPAVG PRESSURE GPRESSURE VOLUME PRESSAVG GPRESSAVG
ENERGY: 0 0.9758 3.7802 2.0152 0.0000 -10599.3490 1475.9850 0.0000 0.0000 1754.9892 -7361.6037 303.1237 -9116.5929 -7361.6037 303.1237 420.8405 496.3949 29625.2295 420.8405 496.3949
ENERGY: 300000 2.6909 5.1300 1.1298 0.0000 -10514.5103 1426.1171 0.0000 0.0000 1732.9661 -7346.4764 299.3198 -9079.4425 -7322.3620 303.0680 -57.0321 -22.9689 30169.6049 136.6808 176.7042
ENERGY: 600000 1.4542 6.4755 1.4746 0.0000 -10549.4483 1478.5664 0.0000 0.0000 1746.7432 -7314.7343 301.6994 -9061.4775 -7321.4249 301.0841 618.0118 721.3248 29799.8289 181.5341 236.8904
ENERGY: 900000 1.4502 4.9479 0.9413 0.0000 -10561.9363 1440.0318 0.0000 0.0000 1674.5641 -7440.0010 289.2325 -9114.5651 -7341.0109 299.9345 212.5966 308.8088 29372.3763 181.6969 242.6391
ENERGY: 1200000 3.3427 2.8308 1.2698 0.0000 -10362.5083 1334.6875 0.0000 0.0000 1785.0766 -7235.3009 308.3204 -9020.3776 -7337.3333 300.3618 -236.0124 -155.7359 29862.8653 45.6473 111.3685
ENERGY: 1500000 1.4137 4.1112 1.6581 0.0000 -10558.2141 1456.7197 0.0000 0.0000 1717.4975 -7376.8138 296.6480 -9094.3113 -7338.8119 300.5782 215.8581 274.8957 29882.8430 71.0090 134.7285
TCL: Running FEP window  10: Lambda1 0.44999999999999996 Lambda2 0.49999999999999994 [dLambda 0.04999999999999999]
TCL: Setting parameter firsttimestep to 0
TCL: Setting parameter alchLambda to 0.44999999999999996
Info: NONBONDED TABLE R-SQUARED SPACING: 0.0625
Info: NONBONDED TABLE SIZE: 705 POINTS
TCL: Setting parameter alchLambda2 to 0.49999999999999994
Info: NONBONDED TABLE R-SQUARED SPACING: 0.0625
Info: NONBONDED TABLE SIZE: 705 POINTS
TCL: Running for 1500000 steps
ETITLE: TS BOND ANGLE DIHED IMPRP ELECT VDW BOUNDARY MISC KINETIC TOTAL TEMP POTENTIAL TOTALAVG TEMPAVG PRESSURE GPRESSURE VOLUME PRESSAVG GPRESSAVG
ENERGY: 0 1.4138 4.1112 1.6581 0.0000 -10558.2131 1456.8055 0.0000 0.0000 1716.6076 -7377.6169 296.4943 -9094.2245 -7377.6169 296.4943 190.4856 279.5512 29882.8430 190.4856 279.5512
ENERGY: 300000 4.2957 3.2120 0.7824 0.0000 -10627.9934 1460.4819 0.0000 0.0000 1733.0236 -7426.1979 299.3297 -9159.2214 -7363.5287 300.0687 -144.2011 -121.5020 30125.1767 -84.9926 -9.1567
ENERGY: 600000 2.8561 5.5207 0.8216 0.0000 -10434.6567 1376.7827 0.0000 0.0000 1767.9380 -7280.7376 305.3602 -9048.6756 -7326.5351 302.4593 -385.2607 -279.4352 29918.9015 -253.2764 -179.2908
ENERGY: 900000 1.5966 7.8299 2.3034 0.0000 -10407.9693 1371.1809 0.0000 0.0000 1722.8262 -7302.2325 297.5684 -9025.0586 -7310.2530 302.2154 -437.3675 -382.3777 30168.8951 -193.8189 -127.7087
ENERGY: 1200000 1.0418 11.2871 1.3756 0.0000 -10486.2006 1426.4286 0.0000 0.0000 1704.5123 -7341.5553 294.4052 -9046.0676 -7329.9417 301.6162 127.0664 283.6436 29822.6629 -207.6968 -136.3322
ENERGY: 1500000 1.3690 3.5016 1.4910 0.0000 -10500.8472 1454.9065 0.0000 0.0000 1736.8489 -7302.7302 299.9904 -9039.5791 -7322.8747 302.1436 658.9760 733.3206 29453.5931 -151.0477 -82.7489
TCL: Running FEP window  11: Lambda1 0.49999999999999994 Lambda2 0.5499999999999999 [dLambda 0.04999999999999999]
TCL: Setting parameter firsttimestep to 0
TCL: Setting parameter alchLambda to 0.49999999999999994
Info: NONBONDED TABLE R-SQUARED SPACING: 0.0625
Info: NONBONDED TABLE SIZE: 705 POINTS
TCL: Setting parameter alchLambda2 to 0.5499999999999999
Info: NONBONDED TABLE R-SQUARED SPACING: 0.0625
Info: NONBONDED TABLE SIZE: 705 POINTS
TCL: Running for 1500000 steps
ETITLE: TS BOND ANGLE DIHED IMPRP ELECT VDW BOUNDARY MISC KINETIC TOTAL TEMP POTENTIAL TOTALAVG TEMPAVG PRESSURE GPRESSURE VOLUME PRESSAVG GPRESSAVG
ENERGY: 0 1.3690 3.5016 1.4910 0.0000 -10500.8477 1454.8165 0.0000 0.0000 1735.9900 -7303.6795 299.8421 -9039.6695 -7303.6795 299.8421 644.2524 736.8021 29453.5931 644.2524 736.8021
ENERGY: 300000 1.9056 7.2576 1.3799 0.0000 -10585.9671 1454.9755 0.0000 0.0000 1741.0180 -7379.4305 300.7105 -9120.4485 -7340.1413 300.0938 42.3001 119.1593 29866.6236 -42.9682 21.8884
ENERGY: 600000 3.4075 2.3828 1.0952 0.0000 -10442.8654 1377.4659 0.0000 0.0000 1736.9075 -7321.6065 300.0005 -9058.5140 -7345.9010 299.1577 -242.7417 -172.9729 29929.2694 -285.7450 -216.6762
ENERGY: 900000 1.5067 6.5650 1.1321 0.0000 -10411.3211 1328.1776 0.0000 0.0000 1775.2142 -7298.7254 306.6169 -9073.9397 -7319.8173 301.8124 -684.0093 -607.3099 29846.2910 -194.8794 -118.4138
ENERGY: 1200000 1.7444 5.9088 1.3766 0.0000 -10591.1036 1456.4614 0.0000 0.0000 1731.6142 -7393.9982 299.0863 -9125.6124 -7325.7968 300.9379 191.0206 225.3641 29594.1771 -181.9529 -118.1601
ENERGY: 1500000 2.3236 3.9321 0.9369 0.0000 -10511.6079 1430.8348 0.0000 0.0000 1758.7206 -7314.8599 303.7681 -9073.5805 -7326.3436 301.7607 199.9286 294.8824 29623.9377 -121.2005 -57.1059
TCL: Running FEP window  12: Lambda1 0.5499999999999999 Lambda2 0.6    [dLambda 0.050000000000000044]
TCL: Setting parameter firsttimestep to 0
TCL: Setting parameter alchLambda to 0.5499999999999999
Info: NONBONDED TABLE R-SQUARED SPACING: 0.0625
Info: NONBONDED TABLE SIZE: 705 POINTS
TCL: Setting parameter alchLambda2 to 0.6
Info: NONBONDED TABLE R-SQUARED SPACING: 0.0625
Info: NONBONDED TABLE SIZE: 705 POINTS
TCL: Running for 1500000 steps
ETITLE: TS BOND ANGLE DIHED IMPRP ELECT VDW BOUNDARY MISC KINETIC TOTAL TEMP POTENTIAL TOTALAVG TEMPAVG PRESSURE GPRESSURE VOLUME PRESSAVG GPRESSAVG
ENERGY: 0 2.3236 3.9321 0.9369 0.0000 -10511.4753 1431.1507 0.0000 0.0000 1757.8794 -7315.2526 303.6228 -9073.1320 -7315.2526 303.6228 204.8851 304.4817 29623.9377 204.8851 304.4817
ENERGY: 300000 7.1144 6.1152 1.2432 0.0000 -10422.7487 1350.7687 0.0000 0.0000 1773.9913 -7283.5159 306.4057 -9057.5072 -7328.9164 305.5227 -589.8096 -573.8290 29951.9976 -104.4874 -45.0200
ENERGY: 600000 2.7764 4.7660 1.3663 0.0000 -10572.9069 1416.4772 0.0000 0.0000 1706.1902 -7441.3308 294.6950 -9147.5210 -7360.8407 300.6458 -97.6475 -8.9245 29610.2269 -180.0745 -115.0717
ENERGY: 900000 1.1366 2.3980 0.8253 0.0000 -10585.9849 1472.6465 0.0000 0.0000 1758.0779 -7350.9006 303.6571 -9108.9785 -7360.6381 300.2845 469.5939 530.3815 29882.6269 -111.7017 -53.7657
ENERGY: 1200000 5.1556 5.7002 0.8812 0.0000 -10560.3467 1472.7633 0.0000 0.0000 1751.0464 -7324.8000 302.4426 -9075.8464 -7354.0403 300.0942 512.1824 550.9422 29458.8165 -27.4850 28.4403
ENERGY: 1500000 4.7115 7.8780 1.8888 0.0000 -10395.1914 1330.0685 0.0000 0.0000 1659.7275 -7390.9170 286.6699 -9050.6445 -7355.3005 298.5190 -617.3523 -524.1704 29860.9905 -78.6834 -22.8205
TCL: Running FEP window  13: Lambda1 0.6    Lambda2 0.65   [dLambda 0.050000000000000044]
TCL: Setting parameter firsttimestep to 0
TCL: Setting parameter alchLambda to 0.6
Info: NONBONDED TABLE R-SQUARED SPACING: 0.0625
Info: NONBONDED TABLE SIZE: 705 POINTS
TCL: Setting parameter alchLambda2 to 0.65
Info: NONBONDED TABLE R-SQUARED SPACING: 0.0625
Info: NONBONDED TABLE SIZE: 705 POINTS
TCL: Running for 1500000 steps
ETITLE: TS BOND ANGLE DIHED IMPRP ELECT VDW BOUNDARY MISC KINETIC TOTAL TEMP POTENTIAL TOTALAVG TEMPAVG PRESSURE GPRESSURE VOLUME PRESSAVG GPRESSAVG
ENERGY: 0 4.7115 7.8780 1.8888 0.0000 -10395.4452 1329.7723 0.0000 0.0000 1658.8913 -7392.3033 286.5255 -9051.1945 -7392.3033 286.5255 -618.4679 -521.6157 29860.9905 -618.4679 -521.6157
ENERGY: 300000 2.7355 7.7473 2.6865 0.0000 -10509.8588 1447.7265 0.0000 0.0000 1742.0117 -7306.9515 300.8822 -9048.9632 -7345.7667 298.4172 220.4890 293.0580 30063.0985 -63.0610 -5.4496
ENERGY: 600000 2.4118 3.1872 0.9306 0.0000 -10528.0449 1446.7665 0.0000 0.0000 1770.1287 -7304.6200 305.7386 -9074.7487 -7358.2395 297.7891 280.6135 370.8745 29865.9757 -133.8341 -81.8516
ENERGY: 900000 3.4429 6.1200 1.5468 0.0000 -10661.7926 1508.0828 0.0000 0.0000 1701.7960 -7440.8041 293.9361 -9142.6001 -7372.2462 297.3769 923.9230 1008.3601 29260.5500 70.4506 125.2532
ENERGY: 1200000 1.2856 6.5490 1.2162 0.0000 -10484.5545 1419.8431 0.0000 0.0000 1723.2547 -7332.4059 297.6424 -9055.6606 -7364.6530 298.2574 44.1522 182.1703 29637.8421 136.9802 199.4279
ENERGY: 1500000 1.1619 3.2413 3.2831 0.0000 -10447.3074 1354.0787 0.0000 0.0000 1753.0349 -7332.5075 302.7861 -9085.5424 -7346.2565 299.8198 -536.4157 -513.3154 30220.4180 2.6404 60.2538
TCL: Running FEP window  14: Lambda1 0.65   Lambda2 0.7000000000000001 [dLambda 0.050000000000000044]
TCL: Setting parameter firsttimestep to 0
TCL: Setting parameter alchLambda to 0.65
Info: NONBONDED TABLE R-SQUARED SPACING: 0.0625
Info: NONBONDED TABLE SIZE: 705 POINTS
TCL: Setting parameter alchLambda2 to 0.7000000000000001
Info: NONBONDED TABLE R-SQUARED SPACING: 0.0625
Info: NONBONDED TABLE SIZE: 705 POINTS
TCL: Running for 1500000 steps
ETITLE: TS BOND ANGLE DIHED IMPRP ELECT VDW BOUNDARY MISC KINETIC TOTAL TEMP POTENTIAL TOTALAVG TEMPAVG PRESSURE GPRESSURE VOLUME PRESSAVG GPRESSAVG
ENERGY: 0 1.1619 3.2413 3.2831 0.0000 -10447.8265 1353.9241 0.0000 0.0000 1752.2126 -7334.0034 302.6441 -9086.2161 -7334.0034 302.6441 -580.6177 -508.1990 30220.4180 -580.6177 -508.1990
ENERGY: 300000 0.9419 5.7961 1.2212 0.0000 -10412.5653 1385.0834 0.0000 0.0000 1737.2017 -7282.3211 300.0514 -9019.5228 -7296.2304 304.8724 134.3741 151.6266 29823.9539 -249.1476 -191.8074
ENERGY: 600000 2.3934 5.9932 0.7530 0.0000 -10527.8904 1395.7143 0.0000 0.0000 1730.3403 -7392.6962 298.8663 -9123.0364 -7336.0519 301.2780 -347.5562 -297.0427 29892.1982 -300.3267 -242.5365
ENERGY: 900000 1.9421 5.1486 1.4943 0.0000 -10489.0762 1413.2350 0.0000 0.0000 1767.7262 -7299.5300 305.3236 -9067.2562 -7327.8308 300.8670 36.5712 9.5075 30233.3397 -110.0521 -59.7725
ENERGY: 1200000 1.9174 5.7962 0.7824 0.0000 -10489.9959 1414.2436 0.0000 0.0000 1769.7645 -7297.4917 305.6756 -9067.2562 -7333.4613 300.5761 -99.3249 -19.8679 30333.4999 -120.8523 -61.6226
ENERGY: 1500000 2.7386 4.7838 1.2756 0.0000 -10408.7430 1387.9438 0.0000 0.0000 1708.7899 -7303.2113 295.1440 -9012.0012 -7341.6812 299.4498 -58.8577 0.9905 30104.1408 -121.5370 -64.6409
TCL: Running FEP window  15: Lambda1 0.7000000000000001 Lambda2 0.7500000000000001 [dLambda 0.050000000000000044]
TCL: Setting parameter firsttimestep to 0
TCL: Setting parameter alchLambda to 0.7000000000000001
Info: NONBONDED TABLE R-SQUARED SPACING: 0.0625
Info: NONBONDED TABLE SIZE: 705 POINTS
TCL: Setting parameter alchLambda2 to 0.7500000000000001
Info: NONBONDED TABLE R-SQUARED SPACING: 0.0625
Info: NONBONDED TABLE SIZE: 705 POINTS
TCL: Running for 1500000 steps
ETITLE: TS BOND ANGLE DIHED IMPRP ELECT VDW BOUNDARY MISC KINETIC TOTAL TEMP POTENTIAL TOTALAVG TEMPAVG PRESSURE GPRESSURE VOLUME PRESSAVG GPRESSAVG
ENERGY: 0 2.7386 4.7838 1.2756 0.0000 -10410.1383 1388.3582 0.0000 0.0000 1707.9447 -7305.0374 294.9981 -9012.9821 -7305.0374 294.9981 -86.6412 3.3993 30104.1408 -86.6412 3.3993
ENERGY: 300000 1.1382 3.4254 1.1036 0.0000 -10429.4433 1367.1357 0.0000 0.0000 1757.3563 -7299.2841 303.5325 -9056.6404 -7315.2525 301.6284 -556.2250 -486.7977 30719.7186 -610.3319 -550.7733
ENERGY: 600000 2.1718 8.3178 1.0327 0.0000 -10607.7076 1453.2272 0.0000 0.0000 1774.1894 -7368.7687 306.4399 -9142.9582 -7322.1754 303.4644 198.5403 284.5428 29660.3236 -296.6008 -233.9651
ENERGY: 900000 1.4741 7.1446 1.5993 0.0000 -10611.1810 1472.8847 0.0000 0.0000 1714.4612 -7413.6170 296.1236 -9128.0782 -7351.0559 300.8871 588.8604 743.2194 29202.3193 -106.1061 -36.6881
ENERGY: 1200000 1.2043 6.6029 0.9785 0.0000 -10475.5006 1365.3684 0.0000 0.0000 1720.6474 -7380.6991 297.1921 -9101.3465 -7356.7018 300.5963 -266.7693 -193.7094 29772.5676 -149.2346 -78.5270
ENERGY: 1500000 1.2775 6.9955 1.6668 0.0000 -10597.6160 1542.7131 0.0000 0.0000 1760.9659 -7283.9972 304.1559 -9044.9631 -7351.1508 301.3299 1477.3895 1575.7055 29384.7159 -60.2237 15.3294
TCL: Running FEP window  16: Lambda1 0.7500000000000001 Lambda2 0.8000000000000002 [dLambda 0.050000000000000044]
TCL: Setting parameter firsttimestep to 0
TCL: Setting parameter alchLambda to 0.7500000000000001
Info: NONBONDED TABLE R-SQUARED SPACING: 0.0625
Info: NONBONDED TABLE SIZE: 705 POINTS
TCL: Setting parameter alchLambda2 to 0.8000000000000002
Info: NONBONDED TABLE R-SQUARED SPACING: 0.0625
Info: NONBONDED TABLE SIZE: 705 POINTS
TCL: Running for 1500000 steps
ETITLE: TS BOND ANGLE DIHED IMPRP ELECT VDW BOUNDARY MISC KINETIC TOTAL TEMP POTENTIAL TOTALAVG TEMPAVG PRESSURE GPRESSURE VOLUME PRESSAVG GPRESSAVG
ENERGY: 0 1.2775 6.9955 1.6668 0.0000 -10598.3853 1542.7797 0.0000 0.0000 1760.0880 -7285.5778 304.0043 -9045.6658 -7285.5778 304.0043 1490.6014 1581.4373 29384.7159 1490.6014 1581.4373
ENERGY: 300000 1.7746 7.3871 1.1515 0.0000 -10392.0682 1344.1806 0.0000 0.0000 1804.2860 -7233.2884 311.6382 -9037.5744 -7297.2211 302.5856 -227.7527 -239.1635 29886.8809 347.9937 386.1446
ENERGY: 600000 2.3853 4.8576 1.1456 0.0000 -10492.5744 1436.7729 0.0000 0.0000 1681.6898 -7365.7232 290.4633 -9047.4130 -7323.1032 301.1515 -1.5899 53.5386 30385.6015 190.3919 223.0550
ENERGY: 900000 0.8010 6.6460 1.1408 0.0000 -10394.0616 1363.3178 0.0000 0.0000 1702.8093 -7319.3466 294.1111 -9022.1559 -7323.3963 301.4567 -348.5511 -287.4402 29933.9010 -36.6379 -1.3955
ENERGY: 1200000 2.7536 3.4262 1.2635 0.0000 -10528.2656 1438.5907 0.0000 0.0000 1707.1040 -7375.1276 294.8529 -9082.2316 -7332.9238 300.3512 293.7255 349.0012 29910.2295 -71.4680 -24.2524
ENERGY: 1500000 6.6586 4.6003 1.1024 0.0000 -10351.4199 1339.9197 0.0000 0.0000 1738.2115 -7260.9274 300.2258 -8999.1389 -7331.0550 300.4042 -1017.4519 -992.8235 31036.2882 -105.5656 -56.7591
TCL: Running FEP window  17: Lambda1 0.8000000000000002 Lambda2 0.8500000000000002 [dLambda 0.050000000000000044]
TCL: Setting parameter firsttimestep to 0
TCL: Setting parameter alchLambda to 0.8000000000000002
Info: NONBONDED TABLE R-SQUARED SPACING: 0.0625
Info: NONBONDED TABLE SIZE: 705 POINTS
TCL: Setting parameter alchLambda2 to 0.8500000000000002
Info: NONBONDED TABLE R-SQUARED SPACING: 0.0625
Info: NONBONDED TABLE SIZE: 705 POINTS
TCL: Running for 1500000 steps
ETITLE: TS BOND ANGLE DIHED IMPRP ELECT VDW BOUNDARY MISC KINETIC TOTAL TEMP POTENTIAL TOTALAVG TEMPAVG PRESSURE GPRESSURE VOLUME PRESSAVG GPRESSAVG
ENERGY: 0 6.6586 4.6003 1.1024 0.0000 -10353.5195 1340.1389 0.0000 0.0000 1737.3460 -7263.6734 300.0763 -9001.0194 -7263.6734 300.0763 -1080.0892 -989.6840 31036.2882 -1080.0892 -989.6840
ENERGY: 300000 2.0855 10.9607 1.8645 0.0000 -10670.0885 1468.1834 0.0000 0.0000 1779.1842 -7407.8103 307.3026 -9186.9945 -7328.7759 306.0392 158.0613 235.9021 29880.9013 -409.3024 -348.9454
ENERGY: 600000 1.2772 4.1274 1.1919 0.0000 -10377.5650 1329.8956 0.0000 0.0000 1758.9214 -7282.1515 303.8028 -9041.0729 -7352.4385 305.2279 -548.7124 -402.3503 29934.5308 -213.9204 -143.7172
ENERGY: 900000 2.1406 4.6281 0.6325 0.0000 -10555.1696 1452.0736 0.0000 0.0000 1700.6234 -7395.0714 293.7335 -9095.6948 -7351.0496 303.5389 85.8411 185.5399 30355.4051 -136.5872 -61.4901
ENERGY: 1200000 1.4965 6.4585 1.3081 0.0000 -10604.7303 1470.0344 0.0000 0.0000 1694.7297 -7430.7032 292.7156 -9125.4329 -7362.6095 301.8182 453.6898 554.0094 29546.6714 -59.3043 16.4674
ENERGY: 1500000 1.1325 6.6816 1.2740 0.0000 -10361.3730 1331.8335 0.0000 0.0000 1717.5156 -7302.9358 296.6512 -9020.4514 -7359.4322 301.3713 -684.1252 -581.8820 30233.1445 -113.6085 -28.6560
TCL: Running FEP window  18: Lambda1 0.8500000000000002 Lambda2 0.9000000000000002 [dLambda 0.050000000000000044]
TCL: Setting parameter firsttimestep to 0
TCL: Setting parameter alchLambda to 0.8500000000000002
Info: NONBONDED TABLE R-SQUARED SPACING: 0.0625
Info: NONBONDED TABLE SIZE: 705 POINTS
TCL: Setting parameter alchLambda2 to 0.9000000000000002
Info: NONBONDED TABLE R-SQUARED SPACING: 0.0625
Info: NONBONDED TABLE SIZE: 705 POINTS
TCL: Running for 1500000 steps
ETITLE: TS BOND ANGLE DIHED IMPRP ELECT VDW BOUNDARY MISC KINETIC TOTAL TEMP POTENTIAL TOTALAVG TEMPAVG PRESSURE GPRESSURE VOLUME PRESSAVG GPRESSAVG
ENERGY: 0 1.1325 6.6816 1.2740 0.0000 -10362.9846 1333.0424 0.0000 0.0000 1716.6328 -7304.2214 296.4987 -9020.8542 -7304.2214 296.4987 -661.8414 -565.3271 30233.1445 -661.8414 -565.3271
ENERGY: 300000 1.7883 3.3327 1.5976 0.0000 -10594.3489 1438.0976 0.0000 0.0000 1707.4048 -7442.1278 294.9048 -9149.5326 -7391.0045 295.8039 314.6967 352.1891 29584.2398 67.7852 121.7599
ENERGY: 600000 1.2465 8.9038 1.1998 0.0000 -10585.6934 1482.4606 0.0000 0.0000 1772.6828 -7319.2000 306.1797 -9091.8827 -7350.8021 300.3745 550.2620 558.8665 29869.0725 292.2976 335.9667
ENERGY: 900000 2.3036 7.9893 1.5239 0.0000 -10545.4169 1431.1710 0.0000 0.0000 1737.8442 -7364.5848 300.1623 -9102.4290 -7357.9197 300.8494 121.5783 157.9883 29955.8078 152.0591 194.1039
ENERGY: 1200000 2.6722 5.6960 0.7611 0.0000 -10513.4125 1421.9864 0.0000 0.0000 1708.6480 -7373.6488 295.1195 -9082.2968 -7351.6813 300.4177 -50.2794 41.4037 29919.3671 79.4353 125.8471
ENERGY: 1500000 1.7297 5.7699 1.3698 0.0000 -10670.4789 1528.7031 0.0000 0.0000 1691.5375 -7441.3689 292.1642 -9132.9064 -7356.4257 300.9217 705.5637 726.2011 29961.5444 32.3354 78.5858
TCL: Running FEP window  19: Lambda1 0.9000000000000002 Lambda2 0.9500000000000003 [dLambda 0.050000000000000044]
TCL: Setting parameter firsttimestep to 0
TCL: Setting parameter alchLambda to 0.9000000000000002
Info: NONBONDED TABLE R-SQUARED SPACING: 0.0625
Info: NONBONDED TABLE SIZE: 705 POINTS
TCL: Setting parameter alchLambda2 to 0.9500000000000003
Info: NONBONDED TABLE R-SQUARED SPACING: 0.0625
Info: NONBONDED TABLE SIZE: 705 POINTS
TCL: Running for 1500000 steps
ETITLE: TS BOND ANGLE DIHED IMPRP ELECT VDW BOUNDARY MISC KINETIC TOTAL TEMP POTENTIAL TOTALAVG TEMPAVG PRESSURE GPRESSURE VOLUME PRESSAVG GPRESSAVG
ENERGY: 0 1.7297 5.7699 1.3698 0.0000 -10672.3619 1529.8242 0.0000 0.0000 1690.6823 -7442.9859 292.0165 -9133.6683 -7442.9859 292.0165 662.9998 744.1052 29961.5444 662.9998 744.1052
ENERGY: 300000 2.1684 5.4121 0.8730 0.0000 -10389.9208 1325.0262 0.0000 0.0000 1738.8398 -7317.6013 300.3343 -9056.4411 -7346.2827 300.9037 -989.6524 -927.7381 30545.4233 144.4982 218.7319
ENERGY: 600000 1.5820 5.3943 1.4757 0.0000 -10551.9971 1479.3008 0.0000 0.0000 1793.5883 -7270.6560 309.7905 -9064.2443 -7328.5322 301.0154 584.6753 603.9675 30031.7763 80.0360 144.2546
ENERGY: 900000 2.2811 5.7645 0.6442 0.0000 -10532.4634 1420.8314 0.0000 0.0000 1723.5904 -7379.3517 297.7004 -9102.9421 -7332.5618 301.9768 51.6418 118.4826 29703.2897 38.4411 97.4545
ENERGY: 1200000 2.8989 8.8176 1.0751 0.0000 -10616.1491 1415.0718 0.0000 0.0000 1756.5520 -7431.7337 303.3936 -9188.2856 -7342.5807 301.4341 -263.1990 -145.2003 29655.6182 -30.3349 35.3588
ENERGY: 1500000 1.4837 8.4692 0.9575 0.0000 -10567.7039 1405.0730 0.0000 0.0000 1727.6303 -7424.0902 298.3982 -9151.7205 -7349.5575 301.2875 10.9275 29.0754 29682.1465 -18.1253 39.1655
TCL: Running FEP window  20: Lambda1 0.9500000000000003 Lambda2 1.0    [dLambda 0.04999999999999971]
TCL: Setting parameter firsttimestep to 0
TCL: Setting parameter alchLambda to 0.9500000000000003
Info: NONBONDED TABLE R-SQUARED SPACING: 0.0625
Info: NONBONDED TABLE SIZE: 705 POINTS
TCL: Setting parameter alchLambda2 to 1.0
Info: NONBONDED TABLE R-SQUARED SPACING: 0.0625
Info: NONBONDED TABLE SIZE: 705 POINTS
TCL: Running for 1500000 steps
ETITLE: TS BOND ANGLE DIHED IMPRP ELECT VDW BOUNDARY MISC KINETIC TOTAL TEMP POTENTIAL TOTALAVG TEMPAVG PRESSURE GPRESSURE VOLUME PRESSAVG GPRESSAVG
ENERGY: 0 1.4837 8.4692 0.9575 0.0000 -10569.5620 1406.6583 0.0000 0.0000 1726.7662 -7425.2271 298.2489 -9151.9933 -7425.2271 298.2489 -29.5165 52.7266 29682.1465 -29.5165 52.7266
ENERGY: 300000 5.2895 7.2339 1.4516 0.0000 -10424.3534 1360.7764 0.0000 0.0000 1721.4582 -7328.1437 297.3321 -9049.6020 -7367.9703 297.7292 -447.8960 -329.8913 30118.8279 -187.9571 -136.1248
ENERGY: 600000 2.0603 4.8698 1.2089 0.0000 -10487.5396 1416.3565 0.0000 0.0000 1734.7706 -7328.2735 299.6315 -9063.0441 -7360.2418 297.6603 283.6520 284.9770 29545.8344 -197.9054 -146.2984
ENERGY: 900000 1.5234 9.0003 0.8517 0.0000 -10572.9330 1440.7705 0.0000 0.0000 1732.1977 -7388.5894 299.1871 -9120.7871 -7363.7969 297.9576 145.5594 211.8091 30121.9399 -158.8904 -108.6919
ENERGY: 1200000 2.1402 2.7669 1.6628 0.0000 -10429.0637 1384.3231 0.0000 0.0000 1741.9493 -7296.2214 300.8714 -9038.1707 -7358.0824 297.9419 -25.5698 4.4305 29910.9972 -205.8125 -159.6990
ENERGY: 1500000 6.1451 4.0555 1.0415 0.0000 -10449.5649 1390.8388 0.0000 0.0000 1760.2210 -7287.2629 304.0273 -9047.4839 -7345.3239 299.3332 -288.6708 -237.1960 30154.7556 -230.1936 -181.2241
TCL: Exiting due to exit command.
