Info: SIMULATION PARAMETERS:
Info: TIMESTEP               2
Info: NUMBER OF STEPS        0
Info: STEPS PER CYCLE        10
Info: PERIODIC CELL BASIS 1  31.9659 0 0
Info: PERIODIC CELL BASIS 2  0 30.1853 0
Info: PERIODIC CELL BASIS 3  0 0 31.4743
Info: PERIODIC CELL CENTER   0 0 0
Info: WRAPPING WATERS AROUND PERIODIC BOUNDARIES ON OUTPUT.
Info: WRAPPING ALL CLUSTERS AROUND PERIODIC BOUNDARIES ON OUTPUT.
Info: FIRST LDB TIMESTEP     50
Info: LAST LDB TIMESTEP     -1
Info: HOM BACKGROUND SCALING 1
Info: PME BACKGROUND SCALING 1
Info: MIN ATOMS PER PATCH    40
Info: EMPTY PATCH LOAD       40 ATOMS
Info: VELOCITY FILE          mobley_1733799_equil.vel
Info: CENTER OF MASS MOVING INITIALLY? NO
Info: DIELECTRIC             1
Info: EXCLUDE                SCALED ONE-FOUR
Info: 1-4 ELECTROSTATICS SCALED BY 0.833333
Info: MODIFIED 1-4 VDW PARAMETERS WILL BE USED
Info: DCD FILENAME           mobley_1733799_prod.dcd
Info: DCD FREQUENCY          100000
Info: DCD FIRST STEP         100000
Info: DCD FILE WILL CONTAIN UNIT CELL DATA
Info: XST FILENAME           mobley_1733799_prod.xst
Info: XST FREQUENCY          100000
Info: NO VELOCITY DCD OUTPUT
Info: NO FORCE DCD OUTPUT
Info: OUTPUT FILENAME        mobley_1733799_prod
Info: BINARY OUTPUT FILES WILL BE USED
Info: RESTART FILENAME       mobley_1733799_prod.restart
Info: RESTART FREQUENCY      100000
Info: BINARY RESTART FILES WILL BE USED
Info: CUTOFF                 9
Info: PAIRLIST DISTANCE      11
Info: PAIRLIST SHRINK RATE   0.01
Info: PAIRLIST GROW RATE     0.01
Info: PAIRLIST TRIGGER       0.3
Info: PAIRLISTS PER CYCLE    2
Info: PAIRLISTS ENABLED
Info: MARGIN                 2
Info: HYDROGEN GROUP CUTOFF  2.5
Info: PATCH DIMENSION        15.5
Info: ENERGY OUTPUT STEPS    100000
Info: ENERGY EVALUATION STEPS    100000
Info: OUTPUT ENERGY PRECISION 4
Info: CROSSTERM ENERGY INCLUDED IN DIHEDRAL
Info: TIMING OUTPUT STEPS    1000000
Info: PRESSURE OUTPUT STEPS  100000
Info: ALCHEMICAL FEP ON
Info: FEP CURRENT LAMBDA VALUE     0
Info: FEP COMPARISON LAMBDA VALUE  0.05
Info: FEP INTRA-ALCHEMICAL NON-BONDED INTERACTIONS WILL BE RETAINED
Info: FEP INTRA-ALCHEMICAL BONDED INTERACTIONS WILL BE RETAINED
Info: FEP VDW SHIFTING COEFFICIENT 5
Info: FEP ELEC. ACTIVE FOR ANNIHILATED PARTICLES BETWEEN LAMBDA = 0 AND LAMBDA = 0.5
Info: FEP ELEC. ACTIVE FOR EXNIHILATED PARTICLES BETWEEN LAMBDA = 0.5 AND LAMBDA = 1
Info: FEP VDW ACTIVE FOR ANNIHILATED PARTICLES BETWEEN LAMBDA = 0 AND LAMBDA = 1
Info: FEP VDW ACTIVE FOR EXNIHILATED PARTICLES BETWEEN LAMBDA = 0 AND LAMBDA = 1
Info: FEP BOND ACTIVE FOR ANNIHILATED PARTICLES BETWEEN LAMBDA = 1 AND LAMBDA = 1
Info: FEP BOND ACTIVE FOR EXNIHILATED PARTICLES BETWEEN LAMBDA = 0 AND LAMBDA = 0
Info: LANGEVIN DYNAMICS ACTIVE
Info: LANGEVIN TEMPERATURE   300
Info: LANGEVIN USING BBK INTEGRATOR
Info: LANGEVIN DAMPING COEFFICIENT IS 1 INVERSE PS
Info: LANGEVIN DYNAMICS APPLIED TO HYDROGENS
Info: LANGEVIN PISTON PRESSURE CONTROL ACTIVE
Info:        TARGET PRESSURE IS 1.01325 BAR
Info:     OSCILLATION PERIOD IS 50 FS
Info:             DECAY TIME IS 25 FS
Info:     PISTON TEMPERATURE IS 300 K
Info:       PRESSURE CONTROL IS GROUP-BASED
Info:    INITIAL STRAIN RATE IS 0.000124757 0.000124757 0.000124757
Info:       CELL FLUCTUATION IS ISOTROPIC
Info: PARTICLE MESH EWALD (PME) ACTIVE
Info: PME TOLERANCE               1e-06
Info: PME EWALD COEFFICIENT       0.348832
Info: PME INTERPOLATION ORDER     4
Info: PME GRID DIMENSIONS         32 32 32
Info: PME MAXIMUM GRID SPACING    1
Info: PME CALCULATION WILL BE PERFORMED ON GPU
Info: FULL ELECTROSTATIC EVALUATION FREQUENCY      2
Info: USING VERLET I (r-RESPA) MTS SCHEME.
Info: C1 SPLITTING OF LONG RANGE ELECTROSTATICS
Info: PLACING ATOMS IN PATCHES BY HYDROGEN GROUPS
Info: RIGID BONDS TO HYDROGEN : ALL
Info:         ERROR TOLERANCE : 1e-08
Info:          MAX ITERATIONS : 100
Info: RIGID WATER USING SETTLE ALGORITHM
Info: RANDOM NUMBER SEED     1742564761
Info: USE HYDROGEN BONDS?    NO
Info: Using AMBER format force field!
Info: AMBER PARM FILE        mobley_1733799.prmtop
Info: COORDINATE PDB         mobley_1733799.pdb
Info: Exclusions will be read from PARM file!
Info: SCNB (VDW SCALING)     2
Info: USING ARITHMETIC MEAN TO COMBINE L-J SIGMA PARAMETERS
Info: BINARY COORDINATES     mobley_1733799_equil.coor
Info: SUMMARY OF PARAMETERS:
Info: 7 BONDS
Info: 5 ANGLES
Info:   5 HARMONIC
Info:   0 COSINE-BASED
Info: 3 DIHEDRAL
Info: 0 IMPROPER
Info: 0 CROSSTERM
Info: 0 VDW
Info: 28 VDW_PAIRS
Info: 0 NBTHOLE_PAIRS
Info: To read alchdata from file: mobley_1733799.pdb
Info: To read alchflag data from column: 5
Info: STRUCTURE SUMMARY:
Info: 2917 ATOMS
Info: 2917 BONDS
Info: 19 ANGLES
Info: 31 DIHEDRALS
Info: 0 IMPROPERS
Info: 0 CROSSTERMS
Info: 2959 EXCLUSIONS
Info: 2909 RIGID BONDS
Info: ALCH: 0 ATOMS TO DISAPPEAR IN FINAL STATE
Info: ALCH: 13 ATOMS TO APPEAR IN FINAL STATE
Info: 5842 DEGREES OF FREEDOM
Info: 976 HYDROGEN GROUPS
Info: 3 ATOMS IN LARGEST HYDROGEN GROUP
Info: 976 MIGRATION GROUPS
Info: 3 ATOMS IN LARGEST MIGRATION GROUP
Info: TOTAL MASS = 17612.5 amu
Info: TOTAL CHARGE = 0.000100002 e
Info: MASS DENSITY = 0.963035 g/cm^3
Info: ATOM DENSITY = 0.0960503 atoms/A^3
Info: ADDED 0 IMPLICIT EXCLUSIONS
Info: NONBONDED TABLE R-SQUARED SPACING: 0.0625
Info: NONBONDED TABLE SIZE: 705 POINTS
Info: REMOVING COM VELOCITY 0.0447376 -0.157029 -0.120817
Info: Use 3D box decompostion in PME FFT.
Info: Updated CUDA force table with 4096 elements.
Info: Updated CUDA LJ table with 7 x 7 elements.
Info: Found 15 unique exclusion lists needing 28 bytes
TCL: Running for 1500000 steps
ETITLE: TS BOND ANGLE DIHED IMPRP ELECT VDW BOUNDARY MISC KINETIC TOTAL TEMP POTENTIAL TOTALAVG TEMPAVG PRESSURE GPRESSURE VOLUME PRESSAVG GPRESSAVG
ENERGY: 0 2.5454 2.6954 1.7081 0.0000 -10417.7530 1326.7492 0.0000 0.0000 1797.5412 -7286.5137 309.6761 -9084.0549 -7286.5137 309.6761 -747.6238 -673.1080 30369.5088 -747.6238 -673.1080
ENERGY: 300000 2.2194 2.6235 1.5842 0.0000 -10488.1061 1304.9307 0.0000 0.0000 1703.1876 -7473.5607 293.4211 -9176.7483 -7366.6395 301.3601 -1228.0955 -1155.1927 30264.8438 -508.7356 -451.4681
ENERGY: 600000 2.4085 2.3212 1.7635 0.0000 -10663.1905 1442.3728 0.0000 0.0000 1769.7046 -7444.6198 304.8805 -9214.3244 -7381.4456 302.8521 -71.7082 42.4157 29720.3643 -234.4109 -172.6370
ENERGY: 900000 1.7133 2.5090 2.5654 0.0000 -10704.7826 1492.3028 0.0000 0.0000 1758.0163 -7447.6758 302.8668 -9205.6921 -7381.0389 302.9611 313.5517 365.1271 29993.6773 -17.5909 46.2328
ENERGY: 1200000 2.5205 6.8701 2.4035 0.0000 -10700.5316 1453.8295 0.0000 0.0000 1671.5514 -7563.3566 287.9709 -9234.9079 -7395.9249 301.8206 -211.9298 -143.1667 29931.2335 23.1795 82.8012
ENERGY: 1500000 3.9071 2.6999 1.3252 0.0000 -10601.9032 1397.4919 0.0000 0.0000 1756.0805 -7440.3987 302.5333 -9196.4792 -7397.5991 301.5326 -567.6576 -448.0549 30039.5368 -18.0691 44.5515
TCL: Running FEP window   2: Lambda1 0.05   Lambda2 0.1    [dLambda 0.05  ]
TCL: Setting parameter firsttimestep to 0
TCL: Setting parameter alchLambda to 0.05
Info: NONBONDED TABLE R-SQUARED SPACING: 0.0625
Info: NONBONDED TABLE SIZE: 705 POINTS
TCL: Setting parameter alchLambda2 to 0.1
Info: NONBONDED TABLE R-SQUARED SPACING: 0.0625
Info: NONBONDED TABLE SIZE: 705 POINTS
TCL: Running for 1500000 steps
ETITLE: TS BOND ANGLE DIHED IMPRP ELECT VDW BOUNDARY MISC KINETIC TOTAL TEMP POTENTIAL TOTALAVG TEMPAVG PRESSURE GPRESSURE VOLUME PRESSAVG GPRESSAVG
ENERGY: 0 3.9071 2.6999 1.3252 0.0000 -10601.9026 1401.4021 0.0000 0.0000 1755.1874 -7437.3810 302.3795 -9192.5684 -7437.3810 302.3795 -534.5193 -440.4772 30039.5368 -534.5193 -440.4772
ENERGY: 300000 2.5603 2.2025 4.0787 0.0000 -10545.4580 1418.4089 0.0000 0.0000 1703.4833 -7414.7243 293.4720 -9118.2076 -7423.9517 298.6889 -200.1221 -169.7420 30310.1614 -117.2102 -62.3423
ENERGY: 600000 4.3557 3.5348 2.5102 0.0000 -10602.6023 1393.2298 0.0000 0.0000 1755.8074 -7443.1645 302.4863 -9198.9719 -7442.6504 299.2827 -597.8301 -557.0790 30154.8437 -144.5744 -84.4613
ENERGY: 900000 2.5017 3.6710 2.6069 0.0000 -10546.4084 1425.7854 0.0000 0.0000 1769.8323 -7342.0111 304.9025 -9111.8434 -7422.4417 300.2963 111.2483 117.2243 29889.1058 -196.6714 -136.4933
ENERGY: 1200000 1.2360 3.3259 1.9922 0.0000 -10689.7749 1518.6460 0.0000 0.0000 1747.7557 -7416.8192 301.0992 -9164.5749 -7422.9852 300.2816 711.6705 741.8669 29629.7344 -117.3102 -57.9682
ENERGY: 1500000 4.1446 7.7209 2.4107 0.0000 -10618.0660 1448.2876 0.0000 0.0000 1685.9716 -7469.5306 290.4552 -9155.5022 -7422.7625 299.0932 18.9270 83.5687 29980.5316 -83.2953 -23.3939
TCL: Running FEP window   3: Lambda1 0.1    Lambda2 0.15000000000000002 [dLambda 0.05000000000000002]
TCL: Setting parameter firsttimestep to 0
TCL: Setting parameter alchLambda to 0.1
Info: NONBONDED TABLE R-SQUARED SPACING: 0.0625
Info: NONBONDED TABLE SIZE: 705 POINTS
TCL: Setting parameter alchLambda2 to 0.15000000000000002
Info: NONBONDED TABLE R-SQUARED SPACING: 0.0625
Info: NONBONDED TABLE SIZE: 705 POINTS
TCL: Running for 1500000 steps
ETITLE: TS BOND ANGLE DIHED IMPRP ELECT VDW BOUNDARY MISC KINETIC TOTAL TEMP POTENTIAL TOTALAVG TEMPAVG PRESSURE GPRESSURE VOLUME PRESSAVG GPRESSAVG
ENERGY: 0 4.1446 7.7209 2.4107 0.0000 -10618.0660 1452.1024 0.0000 0.0000 1685.0933 -7466.5941 290.3038 -9151.6874 -7466.5941 290.3038 8.2623 97.6517 29980.5316 8.2623 97.6517
ENERGY: 300000 5.4209 3.3673 6.8136 0.0000 -10605.9478 1430.9883 0.0000 0.0000 1769.4918 -7389.8660 304.8438 -9159.3578 -7427.9872 297.4502 270.3363 313.7546 29815.8564 -392.6748 -320.3685
ENERGY: 600000 3.1371 5.5414 5.5286 0.0000 -10658.4056 1471.0807 0.0000 0.0000 1714.1604 -7458.9576 295.3114 -9173.1179 -7427.1733 297.8541 1.0067 167.5477 29798.9126 -358.9474 -271.7288
ENERGY: 900000 0.8208 3.2774 1.6868 0.0000 -10567.0680 1414.6425 0.0000 0.0000 1705.9161 -7440.7244 293.8911 -9146.6405 -7422.5680 298.4281 -149.3477 -121.1252 30081.1048 -372.0975 -299.0428
ENERGY: 1200000 4.1335 1.0261 3.6964 0.0000 -10742.7331 1551.5516 0.0000 0.0000 1761.8745 -7420.4510 303.5315 -9182.3255 -7416.4877 298.9068 609.4125 760.4084 29547.2567 -252.2224 -169.5403
ENERGY: 1500000 3.2405 2.4424 4.3100 0.0000 -10622.9749 1540.4863 0.0000 0.0000 1762.5790 -7309.9166 303.6529 -9072.4956 -7416.3964 299.3677 1088.6745 1162.5936 29907.4256 -167.6484 -89.7173
TCL: Running FEP window   4: Lambda1 0.15000000000000002 Lambda2 0.2    [dLambda 0.04999999999999999]
TCL: Setting parameter firsttimestep to 0
TCL: Setting parameter alchLambda to 0.15000000000000002
Info: NONBONDED TABLE R-SQUARED SPACING: 0.0625
Info: NONBONDED TABLE SIZE: 705 POINTS
TCL: Setting parameter alchLambda2 to 0.2
Info: NONBONDED TABLE R-SQUARED SPACING: 0.0625
Info: NONBONDED TABLE SIZE: 705 POINTS
TCL: Running for 1500000 steps
ETITLE: TS BOND ANGLE DIHED IMPRP ELECT VDW BOUNDARY MISC KINETIC TOTAL TEMP POTENTIAL TOTALAVG TEMPAVG PRESSURE GPRESSURE VOLUME PRESSAVG GPRESSAVG
ENERGY: 0 3.2405 2.4424 4.3100 0.0000 -10622.9747 1540.4516 0.0000 0.0000 1761.7113 -7310.8188 303.5034 -9072.5302 -7310.8188 303.5034 1069.8582 1166.8501 29907.4256 1069.8582 1166.8501
ENERGY: 300000 1.7812 3.5403 2.0584 0.0000 -10581.3619 1432.5686 0.0000 0.0000 1669.6964 -7471.7169 287.6513 -9141.4133 -7403.3931 299.8751 -100.3350 48.2880 30263.7309 360.9519 449.9214
ENERGY: 600000 1.6595 2.8151 5.0494 0.0000 -10657.4774 1421.3557 0.0000 0.0000 1766.0167 -7460.5811 304.2451 -9226.5978 -7404.3098 301.8389 -411.5649 -380.7257 30236.0873 48.1950 122.8483
ENERGY: 900000 3.0625 2.9170 2.3003 0.0000 -10484.1166 1363.0238 0.0000 0.0000 1744.9986 -7367.8146 300.6242 -9112.8132 -7403.9484 301.7370 -29.0304 42.5743 29470.8146 43.5404 114.9820
ENERGY: 1200000 2.4264 2.1660 3.3907 0.0000 -10576.5915 1417.8823 0.0000 0.0000 1670.2199 -7480.5062 287.7415 -9150.7260 -7416.5120 300.5989 -37.4670 -35.2576 29614.4634 74.5262 142.6935
ENERGY: 1500000 1.6153 2.3518 3.3258 0.0000 -10523.4160 1351.6247 0.0000 0.0000 1787.2197 -7377.2785 307.8979 -9164.4983 -7419.8248 300.1074 -887.4325 -920.8276 30594.2273 94.2567 155.2324
TCL: Running FEP window   5: Lambda1 0.2    Lambda2 0.25   [dLambda 0.04999999999999999]
TCL: Setting parameter firsttimestep to 0
TCL: Setting parameter alchLambda to 0.2
Info: NONBONDED TABLE R-SQUARED SPACING: 0.0625
Info: NONBONDED TABLE SIZE: 705 POINTS
TCL: Setting parameter alchLambda2 to 0.25
Info: NONBONDED TABLE R-SQUARED SPACING: 0.0625
Info: NONBONDED TABLE SIZE: 705 POINTS
TCL: Running for 1500000 steps
ETITLE: TS BOND ANGLE DIHED IMPRP ELECT VDW BOUNDARY MISC KINETIC TOTAL TEMP POTENTIAL TOTALAVG TEMPAVG PRESSURE GPRESSURE VOLUME PRESSAVG GPRESSAVG
ENERGY: 0 1.6153 2.3518 3.3259 0.0000 -10523.4147 1352.2422 0.0000 0.0000 1786.3221 -7377.5573 307.7433 -9163.8795 -7377.5573 307.7433 -996.5174 -914.3863 30594.2273 -996.5174 -914.3863
ENERGY: 300000 3.4774 2.4089 2.9643 0.0000 -10603.9402 1500.6327 0.0000 0.0000 1744.0921 -7350.3648 300.4680 -9094.4569 -7399.2173 303.0504 651.4175 788.5799 30039.3729 -108.2182 -21.5721
ENERGY: 600000 1.8244 2.9896 4.1308 0.0000 -10583.3104 1416.8279 0.0000 0.0000 1761.5932 -7395.9446 303.4831 -9157.5378 -7425.8065 303.3765 -272.8954 -200.6023 30236.5486 -40.8635 49.9431
ENERGY: 900000 0.9403 4.7507 4.0405 0.0000 -10544.8620 1407.2465 0.0000 0.0000 1754.3131 -7373.5710 302.2289 -9127.8841 -7414.9641 302.3405 117.9021 94.2425 29914.0385 -13.0307 62.9594
ENERGY: 1200000 2.6729 1.7928 3.0816 0.0000 -10459.4260 1393.6803 0.0000 0.0000 1717.2155 -7340.9829 295.8378 -9058.1984 -7415.0607 301.9709 64.3371 96.4110 29784.6362 1.4446 66.4834
ENERGY: 1500000 3.3555 2.9291 2.8148 0.0000 -10775.3814 1491.6137 0.0000 0.0000 1729.1116 -7545.5566 297.8872 -9274.6683 -7419.6327 301.7621 299.4753 359.2531 29334.6560 -2.1357 59.7584
TCL: Running FEP window   6: Lambda1 0.25   Lambda2 0.3    [dLambda 0.04999999999999999]
TCL: Setting parameter firsttimestep to 0
TCL: Setting parameter alchLambda to 0.25
Info: NONBONDED TABLE R-SQUARED SPACING: 0.0625
Info: NONBONDED TABLE SIZE: 705 POINTS
TCL: Setting parameter alchLambda2 to 0.3
Info: NONBONDED TABLE R-SQUARED SPACING: 0.0625
Info: NONBONDED TABLE SIZE: 705 POINTS
TCL: Running for 1500000 steps
ETITLE: TS BOND ANGLE DIHED IMPRP ELECT VDW BOUNDARY MISC KINETIC TOTAL TEMP POTENTIAL TOTALAVG TEMPAVG PRESSURE GPRESSURE VOLUME PRESSAVG GPRESSAVG
ENERGY: 0 3.3555 2.9291 2.8148 0.0000 -10775.3804 1491.7164 0.0000 0.0000 1728.2338 -7546.3308 297.7360 -9274.5646 -7546.3308 297.7360 276.7343 366.1425 29334.6560 276.7343 366.1425
ENERGY: 300000 1.4733 1.6923 2.5921 0.0000 -10567.1393 1400.0450 0.0000 0.0000 1759.3745 -7401.9621 303.1008 -9161.3366 -7455.1345 299.6491 -133.9274 -97.0676 30115.3541 202.6780 246.8185
ENERGY: 600000 2.5546 1.9042 0.9544 0.0000 -10536.1309 1365.2295 0.0000 0.0000 1781.3925 -7384.0958 306.8940 -9165.4883 -7414.6132 300.9045 -715.7005 -650.2711 30269.8082 27.0431 86.2586
ENERGY: 900000 3.6383 2.5510 2.3630 0.0000 -10641.9144 1470.0075 0.0000 0.0000 1795.6797 -7367.6749 309.3554 -9163.3546 -7398.4071 303.5590 411.7300 457.0228 29861.5478 72.2418 120.0940
ENERGY: 1200000 1.7311 3.0349 1.6051 0.0000 -10566.4079 1340.1417 0.0000 0.0000 1696.6539 -7523.2412 292.2955 -9219.8951 -7415.5996 302.1591 -965.4931 -864.2013 29953.1462 46.1042 98.8400
ENERGY: 1500000 3.7798 1.8946 4.6900 0.0000 -10546.2736 1383.5452 0.0000 0.0000 1728.3191 -7424.0448 297.7507 -9152.3639 -7424.7268 301.3812 -575.2884 -523.9356 30379.7633 32.1616 88.4957
TCL: Running FEP window   7: Lambda1 0.3    Lambda2 0.35   [dLambda 0.04999999999999999]
TCL: Setting parameter firsttimestep to 0
TCL: Setting parameter alchLambda to 0.3
Info: NONBONDED TABLE R-SQUARED SPACING: 0.0625
Info: NONBONDED TABLE SIZE: 705 POINTS
TCL: Setting parameter alchLambda2 to 0.35
Info: NONBONDED TABLE R-SQUARED SPACING: 0.0625
Info: NONBONDED TABLE SIZE: 705 POINTS
TCL: Running for 1500000 steps
ETITLE: TS BOND ANGLE DIHED IMPRP ELECT VDW BOUNDARY MISC KINETIC TOTAL TEMP POTENTIAL TOTALAVG TEMPAVG PRESSURE GPRESSURE VOLUME PRESSAVG GPRESSAVG
ENERGY: 0 3.7798 1.8946 4.6900 0.0000 -10546.2728 1383.1442 0.0000 0.0000 1727.4608 -7425.3034 297.6028 -9152.7642 -7425.3034 297.6028 -590.8054 -522.9980 30379.7633 -590.8054 -522.9980
ENERGY: 300000 1.6502 1.8223 1.3878 0.0000 -10553.9167 1391.1160 0.0000 0.0000 1689.9602 -7467.9802 291.1423 -9157.9405 -7431.8389 294.8897 -411.2655 -331.9146 30132.2671 -84.9509 -31.6390
ENERGY: 600000 3.3551 1.5932 3.2398 0.0000 -10512.8991 1379.1842 0.0000 0.0000 1795.6185 -7329.9082 309.3449 -9125.5267 -7412.8382 298.1363 -259.9168 -166.0428 29937.4092 -125.7691 -49.1603
ENERGY: 900000 2.7727 2.2931 3.1382 0.0000 -10658.5825 1465.1527 0.0000 0.0000 1770.4784 -7414.7473 305.0138 -9185.2257 -7403.1109 299.5143 106.0637 148.0492 29988.7757 -67.7032 0.4452
ENERGY: 1200000 1.3928 1.9699 1.9131 0.0000 -10775.6616 1459.8308 0.0000 0.0000 1770.6867 -7539.8684 305.0497 -9310.5551 -7400.3704 300.4325 -160.8002 -44.6944 29697.3698 36.6174 107.7486
ENERGY: 1500000 2.1498 7.0853 0.8319 0.0000 -10584.8665 1463.9443 0.0000 0.0000 1730.6250 -7380.2303 298.1479 -9110.8552 -7397.3757 300.3625 471.3101 555.9465 29782.1766 158.4670 232.1556
TCL: Running FEP window   8: Lambda1 0.35   Lambda2 0.39999999999999997 [dLambda 0.04999999999999999]
TCL: Setting parameter firsttimestep to 0
TCL: Setting parameter alchLambda to 0.35
Info: NONBONDED TABLE R-SQUARED SPACING: 0.0625
Info: NONBONDED TABLE SIZE: 705 POINTS
TCL: Setting parameter alchLambda2 to 0.39999999999999997
Info: NONBONDED TABLE R-SQUARED SPACING: 0.0625
Info: NONBONDED TABLE SIZE: 705 POINTS
TCL: Running for 1500000 steps
ETITLE: TS BOND ANGLE DIHED IMPRP ELECT VDW BOUNDARY MISC KINETIC TOTAL TEMP POTENTIAL TOTALAVG TEMPAVG PRESSURE GPRESSURE VOLUME PRESSAVG GPRESSAVG
ENERGY: 0 2.1498 7.0853 0.8319 0.0000 -10584.8663 1464.4754 0.0000 0.0000 1729.7261 -7380.5978 297.9931 -9110.3239 -7380.5978 297.9931 477.8686 563.0965 29782.1766 477.8686 563.0965
ENERGY: 300000 1.5284 1.3043 4.4480 0.0000 -10577.1277 1402.4253 0.0000 0.0000 1769.1976 -7398.2241 304.7931 -9167.4217 -7409.3063 300.4444 -101.2726 -31.8601 29935.1858 135.7360 198.0284
ENERGY: 600000 3.6171 3.0638 3.1929 0.0000 -10648.3496 1480.1053 0.0000 0.0000 1724.2813 -7434.0891 297.0550 -9158.3704 -7415.0071 299.6828 129.7097 238.4819 30487.7567 13.4978 87.0187
ENERGY: 900000 1.0638 4.1090 7.0277 0.0000 -10585.6982 1399.0798 0.0000 0.0000 1713.5913 -7460.8267 295.2134 -9174.4180 -7398.2677 301.3860 -220.4495 -168.6070 29906.9002 64.5755 141.2575
ENERGY: 1200000 2.1814 4.0233 3.7019 0.0000 -10653.0805 1441.8463 0.0000 0.0000 1769.7203 -7431.6072 304.8832 -9201.3275 -7406.4749 300.9225 -2.7559 106.9919 30034.9952 -12.7646 60.3130
ENERGY: 1500000 4.7886 3.9211 1.3846 0.0000 -10633.8379 1461.9297 0.0000 0.0000 1758.3693 -7403.4446 302.9276 -9161.8139 -7408.4081 301.3727 545.6507 635.3148 29705.2514 -7.4175 68.3605
TCL: Running FEP window   9: Lambda1 0.39999999999999997 Lambda2 0.44999999999999996 [dLambda 0.04999999999999999]
TCL: Setting parameter firsttimestep to 0
TCL: Setting parameter alchLambda to 0.39999999999999997
Info: NONBONDED TABLE R-SQUARED SPACING: 0.0625
Info: NONBONDED TABLE SIZE: 705 POINTS
TCL: Setting parameter alchLambda2 to 0.44999999999999996
Info: NONBONDED TABLE R-SQUARED SPACING: 0.0625
Info: NONBONDED TABLE SIZE: 705 POINTS
TCL: Running for 1500000 steps
ETITLE: TS BOND ANGLE DIHED IMPRP ELECT VDW BOUNDARY MISC KINETIC TOTAL TEMP POTENTIAL TOTALAVG TEMPAVG PRESSURE GPRESSURE VOLUME PRESSAVG GPRESSAVG
ENERGY: 0 4.7886 3.9211 1.3846 0.0000 -10633.8384 1461.9491 0.0000 0.0000 1757.4920 -7404.3030 302.7765 -9161.7950 -7404.3030 302.7765 555.0140 641.8923 29705.2514 555.0140 641.8923
ENERGY: 300000 0.8783 2.8343 4.2904 0.0000 -10596.5455 1485.1458 0.0000 0.0000 1754.4832 -7348.9136 302.2582 -9103.3968 -7405.4673 300.9833 532.0970 636.3403 30161.9106 376.0863 432.9278
ENERGY: 600000 1.2090 5.6371 2.0892 0.0000 -10558.5527 1401.2142 0.0000 0.0000 1742.4549 -7405.9482 300.1860 -9148.4031 -7386.9883 300.9406 -241.6330 -124.9357 29858.0597 169.7826 234.8651
ENERGY: 900000 2.1764 2.0761 4.0245 0.0000 -10582.9369 1427.3262 0.0000 0.0000 1786.3416 -7360.9921 307.7467 -9147.3337 -7394.5365 301.0437 48.5903 103.2042 30246.0692 194.7893 261.7780
ENERGY: 1200000 2.2043 2.4189 2.6053 0.0000 -10473.2114 1341.5992 0.0000 0.0000 1795.1219 -7329.2619 309.2593 -9124.3837 -7391.3594 300.8010 -517.4047 -460.6538 29832.5415 175.7958 241.7928
ENERGY: 1500000 1.2875 2.3247 2.1386 0.0000 -10672.9887 1489.7734 0.0000 0.0000 1781.9996 -7395.4648 306.9986 -9177.4644 -7392.7797 301.7645 553.2763 558.6928 29936.7338 135.8936 188.7264
TCL: Running FEP window  10: Lambda1 0.44999999999999996 Lambda2 0.49999999999999994 [dLambda 0.04999999999999999]
TCL: Setting parameter firsttimestep to 0
TCL: Setting parameter alchLambda to 0.44999999999999996
Info: NONBONDED TABLE R-SQUARED SPACING: 0.0625
Info: NONBONDED TABLE SIZE: 705 POINTS
TCL: Setting parameter alchLambda2 to 0.49999999999999994
Info: NONBONDED TABLE R-SQUARED SPACING: 0.0625
Info: NONBONDED TABLE SIZE: 705 POINTS
TCL: Running for 1500000 steps
ETITLE: TS BOND ANGLE DIHED IMPRP ELECT VDW BOUNDARY MISC KINETIC TOTAL TEMP POTENTIAL TOTALAVG TEMPAVG PRESSURE GPRESSURE VOLUME PRESSAVG GPRESSAVG
ENERGY: 0 1.2875 2.3247 2.1386 0.0000 -10672.9897 1490.0218 0.0000 0.0000 1781.1254 -7396.0917 306.8480 -9177.2170 -7396.0917 306.8480 495.9382 566.5727 29936.7338 495.9382 566.5727
ENERGY: 300000 1.1808 1.7973 1.6477 0.0000 -10611.1482 1431.8249 0.0000 0.0000 1736.0227 -7438.6748 299.0778 -9174.6976 -7441.0033 298.7314 60.7993 133.2203 29933.0275 97.5305 165.6744
ENERGY: 600000 1.2665 2.8525 3.9244 0.0000 -10616.3872 1449.6734 0.0000 0.0000 1745.7640 -7412.9063 300.7560 -9158.6703 -7405.9892 300.5909 513.2508 490.4059 29644.8536 169.0411 225.9039
ENERGY: 900000 2.0895 4.0852 1.3534 0.0000 -10514.6231 1386.9591 0.0000 0.0000 1745.6843 -7374.4516 300.7423 -9120.1359 -7413.2323 301.2812 -335.1484 -234.4931 30282.6575 259.3149 315.1239
ENERGY: 1200000 0.9833 2.1863 3.9976 0.0000 -10494.3012 1430.8493 0.0000 0.0000 1792.5475 -7263.7372 308.8158 -9056.2847 -7400.1647 302.2223 128.1509 190.9180 30451.2625 226.8310 290.2498
ENERGY: 1500000 2.6305 4.4314 3.0334 0.0000 -10554.3647 1405.5269 0.0000 0.0000 1754.3962 -7384.3464 302.2432 -9138.7425 -7396.3598 301.6483 31.1474 102.2360 29691.6127 144.3604 208.7979
TCL: Running FEP window  11: Lambda1 0.49999999999999994 Lambda2 0.5499999999999999 [dLambda 0.04999999999999999]
TCL: Setting parameter firsttimestep to 0
TCL: Setting parameter alchLambda to 0.49999999999999994
Info: NONBONDED TABLE R-SQUARED SPACING: 0.0625
Info: NONBONDED TABLE SIZE: 705 POINTS
TCL: Setting parameter alchLambda2 to 0.5499999999999999
Info: NONBONDED TABLE R-SQUARED SPACING: 0.0625
Info: NONBONDED TABLE SIZE: 705 POINTS
TCL: Running for 1500000 steps
ETITLE: TS BOND ANGLE DIHED IMPRP ELECT VDW BOUNDARY MISC KINETIC TOTAL TEMP POTENTIAL TOTALAVG TEMPAVG PRESSURE GPRESSURE VOLUME PRESSAVG GPRESSAVG
ENERGY: 0 2.6305 4.4314 3.0334 0.0000 -10554.3665 1405.1275 0.0000 0.0000 1753.4986 -7385.6451 302.0885 -9139.1437 -7385.6451 302.0885 27.8417 103.0984 29691.6127 27.8417 103.0984
ENERGY: 300000 2.0257 3.5236 3.1759 0.0000 -10612.9573 1438.9647 0.0000 0.0000 1730.5315 -7434.7358 298.1318 -9165.2674 -7401.1172 301.9738 50.6876 79.0183 29978.6206 -216.8288 -166.3359
ENERGY: 600000 1.0355 1.8976 3.0228 0.0000 -10585.6256 1390.8275 0.0000 0.0000 1746.9458 -7441.8964 300.9596 -9188.8422 -7412.4205 300.6967 -223.1677 -174.0714 29780.7057 -16.8539 49.6741
ENERGY: 900000 1.8171 2.5257 2.8214 0.0000 -10673.4387 1479.1232 0.0000 0.0000 1756.4544 -7430.6969 302.5978 -9187.1513 -7426.4539 301.2432 424.4150 427.3692 29971.8473 62.0635 119.1313
ENERGY: 1200000 1.6684 2.7161 2.3938 0.0000 -10565.6734 1393.2130 0.0000 0.0000 1738.6315 -7427.0507 299.5273 -9165.6822 -7419.1220 301.4479 -298.3639 -202.0419 29873.7376 51.0952 112.9596
ENERGY: 1500000 5.4977 2.2631 0.9616 0.0000 -10562.2197 1424.4558 0.0000 0.0000 1790.8434 -7338.1982 308.5222 -9129.0416 -7414.5886 301.5263 -61.7255 -43.4007 30244.8551 12.5950 69.3173
TCL: Running FEP window  12: Lambda1 0.5499999999999999 Lambda2 0.6    [dLambda 0.050000000000000044]
TCL: Setting parameter firsttimestep to 0
TCL: Setting parameter alchLambda to 0.5499999999999999
Info: NONBONDED TABLE R-SQUARED SPACING: 0.0625
Info: NONBONDED TABLE SIZE: 705 POINTS
TCL: Setting parameter alchLambda2 to 0.6
Info: NONBONDED TABLE R-SQUARED SPACING: 0.0625
Info: NONBONDED TABLE SIZE: 705 POINTS
TCL: Running for 1500000 steps
ETITLE: TS BOND ANGLE DIHED IMPRP ELECT VDW BOUNDARY MISC KINETIC TOTAL TEMP POTENTIAL TOTALAVG TEMPAVG PRESSURE GPRESSURE VOLUME PRESSAVG GPRESSAVG
ENERGY: 0 5.4977 2.2631 0.9616 0.0000 -10562.1547 1423.8581 0.0000 0.0000 1789.9476 -7339.6266 308.3679 -9129.5743 -7339.6266 308.3679 -115.4873 -45.8591 30244.8551 -115.4873 -45.8591
ENERGY: 300000 3.8546 2.3125 2.4161 0.0000 -10623.6713 1442.0593 0.0000 0.0000 1758.4278 -7414.6010 302.9377 -9173.0288 -7368.1051 306.3936 -242.1107 -176.2817 30208.5022 116.6584 177.8670
ENERGY: 600000 1.8465 2.9533 2.7084 0.0000 -10658.4107 1450.9784 0.0000 0.0000 1755.8918 -7444.0323 302.5008 -9199.9241 -7375.3067 305.8574 -43.1244 -9.7891 30237.9238 29.0959 77.8154
ENERGY: 900000 0.4451 1.2468 3.7323 0.0000 -10668.6556 1470.1693 0.0000 0.0000 1755.7898 -7437.2724 302.4833 -9193.0621 -7391.5544 304.3755 448.5630 485.8187 29884.1966 -70.2917 -24.6034
ENERGY: 1200000 2.3283 1.8882 4.0132 0.0000 -10562.2273 1412.6975 0.0000 0.0000 1745.6739 -7395.6261 300.7405 -9141.3000 -7397.3473 302.6391 -212.7173 -76.9509 30469.2520 -98.9668 -43.8423
ENERGY: 1500000 1.3278 3.9824 2.1536 0.0000 -10441.5903 1381.3391 0.0000 0.0000 1760.3194 -7292.4678 303.2636 -9052.7872 -7393.2160 302.9933 -362.5626 -291.6684 30407.1612 -122.4626 -66.0572
TCL: Running FEP window  13: Lambda1 0.6    Lambda2 0.65   [dLambda 0.050000000000000044]
TCL: Setting parameter firsttimestep to 0
TCL: Setting parameter alchLambda to 0.6
Info: NONBONDED TABLE R-SQUARED SPACING: 0.0625
Info: NONBONDED TABLE SIZE: 705 POINTS
TCL: Setting parameter alchLambda2 to 0.65
Info: NONBONDED TABLE R-SQUARED SPACING: 0.0625
Info: NONBONDED TABLE SIZE: 705 POINTS
TCL: Running for 1500000 steps
ETITLE: TS BOND ANGLE DIHED IMPRP ELECT VDW BOUNDARY MISC KINETIC TOTAL TEMP POTENTIAL TOTALAVG TEMPAVG PRESSURE GPRESSURE VOLUME PRESSAVG GPRESSAVG
ENERGY: 0 1.3278 3.9824 2.1536 0.0000 -10441.6013 1381.0398 0.0000 0.0000 1759.4506 -7293.6470 303.1139 -9053.0976 -7293.6470 303.1139 -372.5306 -287.1184 30407.1612 -372.5306 -287.1184
ENERGY: 300000 2.2855 4.2825 2.0297 0.0000 -10628.7227 1408.2104 0.0000 0.0000 1757.3941 -7454.5206 302.7596 -9211.9146 -7422.5589 298.6441 -234.2066 -257.2464 29914.7511 -140.4122 -111.9836
ENERGY: 600000 2.8058 3.1704 3.8804 0.0000 -10588.1320 1450.5536 0.0000 0.0000 1731.4562 -7396.2657 298.2911 -9127.7219 -7436.0752 299.3230 299.8927 327.7071 29870.4243 -27.2453 17.0491
ENERGY: 900000 1.3101 4.2443 5.0663 0.0000 -10607.8245 1449.2379 0.0000 0.0000 1794.0282 -7353.9377 309.0709 -9147.9659 -7425.4931 300.5210 199.8631 220.2970 30062.6992 60.5695 111.6616
ENERGY: 1200000 3.5872 3.0422 3.1890 0.0000 -10605.6944 1465.4830 0.0000 0.0000 1769.7087 -7360.6842 304.8812 -9130.3930 -7408.7395 300.8053 293.1116 341.6255 30146.9503 62.0869 120.2193
ENERGY: 1500000 1.9507 1.1200 3.8709 0.0000 -10503.5252 1390.0427 0.0000 0.0000 1783.3219 -7323.2192 307.2264 -9106.5411 -7407.0154 301.1888 -61.6438 57.1855 30108.3229 82.5900 144.7505
TCL: Running FEP window  14: Lambda1 0.65   Lambda2 0.7000000000000001 [dLambda 0.050000000000000044]
TCL: Setting parameter firsttimestep to 0
TCL: Setting parameter alchLambda to 0.65
Info: NONBONDED TABLE R-SQUARED SPACING: 0.0625
Info: NONBONDED TABLE SIZE: 705 POINTS
TCL: Setting parameter alchLambda2 to 0.7000000000000001
Info: NONBONDED TABLE R-SQUARED SPACING: 0.0625
Info: NONBONDED TABLE SIZE: 705 POINTS
TCL: Running for 1500000 steps
ETITLE: TS BOND ANGLE DIHED IMPRP ELECT VDW BOUNDARY MISC KINETIC TOTAL TEMP POTENTIAL TOTALAVG TEMPAVG PRESSURE GPRESSURE VOLUME PRESSAVG GPRESSAVG
ENERGY: 0 1.9506 1.1200 3.8709 0.0000 -10505.0836 1390.7108 0.0000 0.0000 1782.4740 -7324.9573 307.0804 -9107.4313 -7324.9573 307.0804 -31.9425 65.9820 30108.3229 -31.9425 65.9820
ENERGY: 300000 2.5792 4.4827 2.1555 0.0000 -10623.7105 1445.4817 0.0000 0.0000 1702.4740 -7466.5375 293.2981 -9169.0115 -7373.1304 302.5500 251.9579 312.8852 29971.2977 65.9347 151.3936
ENERGY: 600000 4.5100 3.3124 2.5802 0.0000 -10538.8729 1359.7665 0.0000 0.0000 1725.8696 -7442.8341 297.3287 -9168.7037 -7418.1308 301.0539 -830.8290 -730.7760 30324.0327 74.6734 160.0448
ENERGY: 900000 1.4573 2.3819 4.4241 0.0000 -10646.0432 1471.5097 0.0000 0.0000 1809.6309 -7356.6392 311.7589 -9166.2702 -7392.0249 302.5274 459.9270 506.4234 29756.1105 158.1728 234.5371
ENERGY: 1200000 3.3335 2.0106 2.5696 0.0000 -10403.1258 1325.6933 0.0000 0.0000 1748.5105 -7321.0083 301.2292 -9069.5188 -7377.5604 302.4793 -146.6017 -98.0203 29704.0599 18.0764 89.4628
ENERGY: 1500000 2.4150 5.1993 2.4275 0.0000 -10514.4282 1414.3060 0.0000 0.0000 1783.4658 -7306.6146 307.2512 -9090.0803 -7376.3922 303.4895 60.0388 136.1240 30206.8588 -4.0952 69.2645
TCL: Running FEP window  15: Lambda1 0.7000000000000001 Lambda2 0.7500000000000001 [dLambda 0.050000000000000044]
TCL: Setting parameter firsttimestep to 0
TCL: Setting parameter alchLambda to 0.7000000000000001
Info: NONBONDED TABLE R-SQUARED SPACING: 0.0625
Info: NONBONDED TABLE SIZE: 705 POINTS
TCL: Setting parameter alchLambda2 to 0.7500000000000001
Info: NONBONDED TABLE R-SQUARED SPACING: 0.0625
Info: NONBONDED TABLE SIZE: 705 POINTS
TCL: Running for 1500000 steps
ETITLE: TS BOND ANGLE DIHED IMPRP ELECT VDW BOUNDARY MISC KINETIC TOTAL TEMP POTENTIAL TOTALAVG TEMPAVG PRESSURE GPRESSURE VOLUME PRESSAVG GPRESSAVG
ENERGY: 0 2.4150 5.1993 2.4275 0.0000 -10514.8416 1414.2151 0.0000 0.0000 1782.5381 -7308.0466 307.0914 -9090.5846 -7308.0466 307.0914 49.9585 139.6792 30206.8588 49.9585 139.6792
ENERGY: 300000 0.8679 3.2925 5.4017 0.0000 -10655.8454 1451.3445 0.0000 0.0000 1727.2798 -7467.6591 297.5716 -9194.9388 -7394.3327 304.8925 3.0595 51.1116 30233.1526 -182.1219 -122.7520
ENERGY: 600000 4.2122 1.1145 3.8293 0.0000 -10671.3394 1499.5943 0.0000 0.0000 1737.7056 -7424.8835 299.3678 -9162.5891 -7411.2190 302.9092 648.8814 671.2051 30035.3435 -77.8535 -13.6548
ENERGY: 900000 4.4245 2.7089 4.7520 0.0000 -10672.0278 1485.9843 0.0000 0.0000 1710.9285 -7463.2296 294.7547 -9174.1581 -7403.5249 302.8241 458.3140 554.5022 29709.6735 19.9306 91.5129
ENERGY: 1200000 1.9607 3.8523 3.6348 0.0000 -10472.6653 1422.9901 0.0000 0.0000 1707.7673 -7332.4602 294.2101 -9040.2275 -7400.1778 301.9631 127.4660 156.0948 30350.7219 7.9013 78.6506
ENERGY: 1500000 1.7969 5.7943 3.3769 0.0000 -10603.0056 1516.7302 0.0000 0.0000 1721.6712 -7353.6362 296.6054 -9075.3073 -7397.5453 301.9588 714.3298 837.7271 30099.2761 136.0523 206.2992
TCL: Running FEP window  16: Lambda1 0.7500000000000001 Lambda2 0.8000000000000002 [dLambda 0.050000000000000044]
TCL: Setting parameter firsttimestep to 0
TCL: Setting parameter alchLambda to 0.7500000000000001
Info: NONBONDED TABLE R-SQUARED SPACING: 0.0625
Info: NONBONDED TABLE SIZE: 705 POINTS
TCL: Setting parameter alchLambda2 to 0.8000000000000002
Info: NONBONDED TABLE R-SQUARED SPACING: 0.0625
Info: NONBONDED TABLE SIZE: 705 POINTS
TCL: Running for 1500000 steps
ETITLE: TS BOND ANGLE DIHED IMPRP ELECT VDW BOUNDARY MISC KINETIC TOTAL TEMP POTENTIAL TOTALAVG TEMPAVG PRESSURE GPRESSURE VOLUME PRESSAVG GPRESSAVG
ENERGY: 0 1.7969 5.7943 3.3769 0.0000 -10603.1197 1517.2821 0.0000 0.0000 1720.8264 -7354.0430 296.4599 -9074.8694 -7354.0430 296.4599 761.1412 852.1625 30099.2761 761.1412 852.1625
ENERGY: 300000 1.5659 2.3084 5.8035 0.0000 -10566.5741 1404.6085 0.0000 0.0000 1779.7161 -7372.5717 306.6052 -9152.2878 -7386.5608 301.6848 -189.2427 -140.9664 30199.5549 -46.9771 -1.8041
ENERGY: 600000 1.2992 1.0802 2.2401 0.0000 -10688.5326 1500.4248 0.0000 0.0000 1718.2545 -7465.2337 296.0168 -9183.4882 -7410.2957 299.1624 483.5423 520.6165 30370.6343 35.1324 87.6844
ENERGY: 900000 2.0656 3.4750 3.9918 0.0000 -10528.5509 1360.1670 0.0000 0.0000 1741.6224 -7417.2291 300.0425 -9158.8515 -7413.0768 298.7838 -837.5960 -769.8327 30828.0557 -217.0698 -155.3825
ENERGY: 1200000 5.0658 2.9695 1.6174 0.0000 -10662.6144 1529.3939 0.0000 0.0000 1745.4884 -7378.0794 300.7086 -9123.5678 -7408.8034 298.8839 947.9393 1029.1976 29611.1132 -109.8550 -44.4831
ENERGY: 1500000 3.7728 1.7656 4.9911 0.0000 -10476.4477 1385.0156 0.0000 0.0000 1722.8491 -7358.0535 296.8083 -9080.9026 -7397.0213 299.0859 -194.0301 -137.7799 30435.2918 -51.1034 13.6070
TCL: Running FEP window  17: Lambda1 0.8000000000000002 Lambda2 0.8500000000000002 [dLambda 0.050000000000000044]
TCL: Setting parameter firsttimestep to 0
TCL: Setting parameter alchLambda to 0.8000000000000002
Info: NONBONDED TABLE R-SQUARED SPACING: 0.0625
Info: NONBONDED TABLE SIZE: 705 POINTS
TCL: Setting parameter alchLambda2 to 0.8500000000000002
Info: NONBONDED TABLE R-SQUARED SPACING: 0.0625
Info: NONBONDED TABLE SIZE: 705 POINTS
TCL: Running for 1500000 steps
ETITLE: TS BOND ANGLE DIHED IMPRP ELECT VDW BOUNDARY MISC KINETIC TOTAL TEMP POTENTIAL TOTALAVG TEMPAVG PRESSURE GPRESSURE VOLUME PRESSAVG GPRESSAVG
ENERGY: 0 3.7728 1.7656 4.9911 0.0000 -10478.2572 1386.0922 0.0000 0.0000 1721.9869 -7359.6485 296.6598 -9081.6354 -7359.6485 296.6598 -210.5506 -121.8621 30435.2918 -210.5506 -121.8621
ENERGY: 300000 3.1617 1.4275 2.7818 0.0000 -10596.6465 1418.6218 0.0000 0.0000 1739.8824 -7430.7712 299.7428 -9170.6536 -7424.0600 299.6723 52.2971 81.8785 30075.0713 139.9036 199.5922
ENERGY: 600000 3.7566 5.2761 3.7480 0.0000 -10736.0587 1485.0059 0.0000 0.0000 1741.7783 -7496.4937 300.0694 -9238.2720 -7428.1886 300.6362 177.8168 266.6803 29812.8447 230.4459 276.4036
ENERGY: 900000 2.3403 5.2356 3.6675 0.0000 -10528.5656 1390.9560 0.0000 0.0000 1784.0822 -7342.2840 307.3574 -9126.3662 -7408.6736 300.4303 198.5938 173.1105 29619.4602 141.2689 183.0341
ENERGY: 1200000 2.0578 3.6688 3.1504 0.0000 -10746.6905 1541.6843 0.0000 0.0000 1749.1121 -7447.0171 301.3329 -9196.1293 -7412.7914 301.1680 960.9895 1088.6077 29579.0667 173.8020 234.1018
ENERGY: 1500000 2.1226 3.3454 5.3923 0.0000 -10518.7399 1403.8206 0.0000 0.0000 1763.4112 -7340.6478 303.7963 -9104.0590 -7411.5597 302.2004 52.9962 79.4653 30194.8738 93.4925 151.3631
TCL: Running FEP window  18: Lambda1 0.8500000000000002 Lambda2 0.9000000000000002 [dLambda 0.050000000000000044]
TCL: Setting parameter firsttimestep to 0
TCL: Setting parameter alchLambda to 0.8500000000000002
Info: NONBONDED TABLE R-SQUARED SPACING: 0.0625
Info: NONBONDED TABLE SIZE: 705 POINTS
TCL: Setting parameter alchLambda2 to 0.9000000000000002
Info: NONBONDED TABLE R-SQUARED SPACING: 0.0625
Info: NONBONDED TABLE SIZE: 705 POINTS
TCL: Running for 1500000 steps
ETITLE: TS BOND ANGLE DIHED IMPRP ELECT VDW BOUNDARY MISC KINETIC TOTAL TEMP POTENTIAL TOTALAVG TEMPAVG PRESSURE GPRESSURE VOLUME PRESSAVG GPRESSAVG
ENERGY: 0 2.1226 3.3454 5.3923 0.0000 -10521.1013 1405.5942 0.0000 0.0000 1762.5696 -7342.0772 303.6513 -9104.6469 -7342.0772 303.6513 19.2691 97.8406 30194.8738 19.2691 97.8406
ENERGY: 300000 2.2525 1.6782 5.0888 0.0000 -10611.8678 1472.7800 0.0000 0.0000 1711.4077 -7418.6607 294.8372 -9130.0684 -7393.5020 298.3128 479.8962 572.7830 30099.7074 10.3546 73.4413
ENERGY: 600000 0.6295 1.8805 2.7781 0.0000 -10572.1465 1415.0532 0.0000 0.0000 1770.7324 -7381.0729 305.0575 -9151.8053 -7391.1666 297.1649 -87.2479 -52.9428 30224.2501 -21.6768 26.9314
ENERGY: 900000 3.3436 2.5944 1.9555 0.0000 -10618.1923 1464.6964 0.0000 0.0000 1738.6912 -7406.9112 299.5376 -9145.6024 -7388.6609 299.1032 625.0611 683.8493 29876.4378 167.3216 219.2373
ENERGY: 1200000 2.5326 2.1725 1.1830 0.0000 -10595.0619 1432.5306 0.0000 0.0000 1748.6387 -7408.0046 301.2513 -9156.6432 -7396.9359 299.2826 -37.6254 -4.6798 30501.3581 126.8008 174.4977
ENERGY: 1500000 2.4366 1.7688 2.2108 0.0000 -10762.5206 1468.2038 0.0000 0.0000 1773.5334 -7514.3673 305.5401 -9287.9007 -7407.5128 299.9683 425.3089 460.9246 29514.4066 106.3918 152.2032
TCL: Running FEP window  19: Lambda1 0.9000000000000002 Lambda2 0.9500000000000003 [dLambda 0.050000000000000044]
TCL: Setting parameter firsttimestep to 0
TCL: Setting parameter alchLambda to 0.9000000000000002
Info: NONBONDED TABLE R-SQUARED SPACING: 0.0625
Info: NONBONDED TABLE SIZE: 705 POINTS
TCL: Setting parameter alchLambda2 to 0.9500000000000003
Info: NONBONDED TABLE R-SQUARED SPACING: 0.0625
Info: NONBONDED TABLE SIZE: 705 POINTS
TCL: Running for 1500000 steps
ETITLE: TS BOND ANGLE DIHED IMPRP ELECT VDW BOUNDARY MISC KINETIC TOTAL TEMP POTENTIAL TOTALAVG TEMPAVG PRESSURE GPRESSURE VOLUME PRESSAVG GPRESSAVG
ENERGY: 0 2.4366 1.7688 2.2108 0.0000 -10764.2387 1469.0642 0.0000 0.0000 1772.6498 -7516.1085 305.3879 -9288.7584 -7516.1085 305.3879 386.1070 475.3664 29514.4066 386.1070 475.3664
ENERGY: 300000 2.1174 2.1282 5.8095 0.0000 -10566.8563 1423.5574 0.0000 0.0000 1707.9327 -7425.3110 294.2386 -9133.2438 -7429.3436 300.0296 3.1788 87.4905 30161.1486 101.6063 182.1104
ENERGY: 600000 1.3677 0.8000 3.9629 0.0000 -10528.1189 1417.3408 0.0000 0.0000 1711.4442 -7393.2032 294.8435 -9104.6475 -7414.3803 300.7416 141.7500 219.4235 30147.2902 -53.0918 26.2860
ENERGY: 900000 2.0614 2.5728 3.6365 0.0000 -10553.3388 1408.6020 0.0000 0.0000 1730.2964 -7406.1697 298.0913 -9136.4661 -7408.0438 300.3613 90.3241 118.1357 30026.0683 -10.8928 59.5078
ENERGY: 1200000 3.5555 2.9824 1.3990 0.0000 -10507.8490 1355.4580 0.0000 0.0000 1739.3848 -7405.0693 299.6571 -9144.4541 -7418.5626 298.9167 -458.9200 -430.1335 30059.3788 -87.4643 -20.1609
ENERGY: 1500000 2.9197 2.0810 2.9941 0.0000 -10475.1107 1384.4587 0.0000 0.0000 1748.5340 -7334.1233 301.2333 -9082.6573 -7419.0686 299.5538 -286.4554 -134.3946 30308.8549 -138.6869 -68.0680
TCL: Running FEP window  20: Lambda1 0.9500000000000003 Lambda2 1.0    [dLambda 0.04999999999999971]
TCL: Setting parameter firsttimestep to 0
TCL: Setting parameter alchLambda to 0.9500000000000003
Info: NONBONDED TABLE R-SQUARED SPACING: 0.0625
Info: NONBONDED TABLE SIZE: 705 POINTS
TCL: Setting parameter alchLambda2 to 1.0
Info: NONBONDED TABLE R-SQUARED SPACING: 0.0625
Info: NONBONDED TABLE SIZE: 705 POINTS
TCL: Running for 1500000 steps
ETITLE: TS BOND ANGLE DIHED IMPRP ELECT VDW BOUNDARY MISC KINETIC TOTAL TEMP POTENTIAL TOTALAVG TEMPAVG PRESSURE GPRESSURE VOLUME PRESSAVG GPRESSAVG
ENERGY: 0 2.9197 2.0810 2.9941 0.0000 -10476.8992 1384.5698 0.0000 0.0000 1747.6464 -7336.6883 301.0803 -9084.3347 -7336.6883 301.0803 -212.5195 -128.7215 30308.8549 -212.5195 -128.7215
ENERGY: 300000 2.9979 3.0625 3.4662 0.0000 -10617.2571 1457.0708 0.0000 0.0000 1726.5397 -7424.1201 297.4441 -9150.6597 -7409.0255 301.6544 127.1135 188.9930 30471.8531 396.9623 458.8202
ENERGY: 600000 3.5920 0.8643 1.1458 0.0000 -10663.5070 1456.7799 0.0000 0.0000 1766.5888 -7434.5362 304.3437 -9201.1251 -7438.3419 300.7760 70.7609 57.3767 30251.9509 173.6946 230.2829
ENERGY: 900000 0.8530 2.5004 2.7246 0.0000 -10633.9416 1436.9945 0.0000 0.0000 1760.9779 -7429.8912 303.3771 -9190.8691 -7436.7861 299.4512 79.9809 109.4806 30318.5746 -29.1899 26.6724
ENERGY: 1200000 1.3439 1.8855 4.0320 0.0000 -10461.8953 1313.5168 0.0000 0.0000 1730.7064 -7410.4108 298.1620 -9141.1172 -7439.2186 298.9606 -961.1907 -882.0890 30316.6556 -76.0701 -15.7891
ENERGY: 1500000 1.7249 3.2592 3.2326 0.0000 -10528.0593 1364.5639 0.0000 0.0000 1706.6385 -7448.6401 294.0156 -9155.2787 -7436.1628 298.8109 -29.3621 -41.8300 29765.9773 -43.2235 13.9653
TCL: Exiting due to exit command.
