Info: SIMULATION PARAMETERS:
Info: TIMESTEP               2
Info: NUMBER OF STEPS        0
Info: STEPS PER CYCLE        10
Info: PERIODIC CELL BASIS 1  31.7359 0 0
Info: PERIODIC CELL BASIS 2  0 31.2124 0
Info: PERIODIC CELL BASIS 3  0 0 30.8095
Info: PERIODIC CELL CENTER   0 0 0
Info: WRAPPING WATERS AROUND PERIODIC BOUNDARIES ON OUTPUT.
Info: WRAPPING ALL CLUSTERS AROUND PERIODIC BOUNDARIES ON OUTPUT.
Info: FIRST LDB TIMESTEP     50
Info: LAST LDB TIMESTEP     -1
Info: HOM BACKGROUND SCALING 1
Info: PME BACKGROUND SCALING 1
Info: MIN ATOMS PER PATCH    40
Info: EMPTY PATCH LOAD       40 ATOMS
Info: VELOCITY FILE          mobley_2410897_equil.vel
Info: CENTER OF MASS MOVING INITIALLY? NO
Info: DIELECTRIC             1
Info: EXCLUDE                SCALED ONE-FOUR
Info: 1-4 ELECTROSTATICS SCALED BY 0.833333
Info: MODIFIED 1-4 VDW PARAMETERS WILL BE USED
Info: DCD FILENAME           mobley_2410897_prod.dcd
Info: DCD FREQUENCY          100000
Info: DCD FIRST STEP         100000
Info: DCD FILE WILL CONTAIN UNIT CELL DATA
Info: XST FILENAME           mobley_2410897_prod.xst
Info: XST FREQUENCY          100000
Info: NO VELOCITY DCD OUTPUT
Info: NO FORCE DCD OUTPUT
Info: OUTPUT FILENAME        mobley_2410897_prod
Info: BINARY OUTPUT FILES WILL BE USED
Info: RESTART FILENAME       mobley_2410897_prod.restart
Info: RESTART FREQUENCY      100000
Info: BINARY RESTART FILES WILL BE USED
Info: CUTOFF                 9
Info: PAIRLIST DISTANCE      11
Info: PAIRLIST SHRINK RATE   0.01
Info: PAIRLIST GROW RATE     0.01
Info: PAIRLIST TRIGGER       0.3
Info: PAIRLISTS PER CYCLE    2
Info: PAIRLISTS ENABLED
Info: MARGIN                 2
Info: HYDROGEN GROUP CUTOFF  2.5
Info: PATCH DIMENSION        15.5
Info: ENERGY OUTPUT STEPS    100000
Info: ENERGY EVALUATION STEPS    100000
Info: OUTPUT ENERGY PRECISION 4
Info: CROSSTERM ENERGY INCLUDED IN DIHEDRAL
Info: TIMING OUTPUT STEPS    1000000
Info: PRESSURE OUTPUT STEPS  100000
Info: ALCHEMICAL FEP ON
Info: FEP CURRENT LAMBDA VALUE     1
Info: FEP COMPARISON LAMBDA VALUE  0.95
Info: FEP INTRA-ALCHEMICAL NON-BONDED INTERACTIONS WILL BE RETAINED
Info: FEP INTRA-ALCHEMICAL BONDED INTERACTIONS WILL BE RETAINED
Info: FEP VDW SHIFTING COEFFICIENT 5
Info: FEP ELEC. ACTIVE FOR ANNIHILATED PARTICLES BETWEEN LAMBDA = 0 AND LAMBDA = 0.5
Info: FEP ELEC. ACTIVE FOR EXNIHILATED PARTICLES BETWEEN LAMBDA = 0.5 AND LAMBDA = 1
Info: FEP VDW ACTIVE FOR ANNIHILATED PARTICLES BETWEEN LAMBDA = 0 AND LAMBDA = 1
Info: FEP VDW ACTIVE FOR EXNIHILATED PARTICLES BETWEEN LAMBDA = 0 AND LAMBDA = 1
Info: FEP BOND ACTIVE FOR ANNIHILATED PARTICLES BETWEEN LAMBDA = 1 AND LAMBDA = 1
Info: FEP BOND ACTIVE FOR EXNIHILATED PARTICLES BETWEEN LAMBDA = 0 AND LAMBDA = 0
Info: LANGEVIN DYNAMICS ACTIVE
Info: LANGEVIN TEMPERATURE   300
Info: LANGEVIN USING BBK INTEGRATOR
Info: LANGEVIN DAMPING COEFFICIENT IS 1 INVERSE PS
Info: LANGEVIN DYNAMICS APPLIED TO HYDROGENS
Info: LANGEVIN PISTON PRESSURE CONTROL ACTIVE
Info:        TARGET PRESSURE IS 1.01325 BAR
Info:     OSCILLATION PERIOD IS 50 FS
Info:             DECAY TIME IS 25 FS
Info:     PISTON TEMPERATURE IS 300 K
Info:       PRESSURE CONTROL IS GROUP-BASED
Info:    INITIAL STRAIN RATE IS 0.000356091 0.000356091 0.000356091
Info:       CELL FLUCTUATION IS ISOTROPIC
Info: PARTICLE MESH EWALD (PME) ACTIVE
Info: PME TOLERANCE               1e-06
Info: PME EWALD COEFFICIENT       0.348832
Info: PME INTERPOLATION ORDER     4
Info: PME GRID DIMENSIONS         32 32 32
Info: PME MAXIMUM GRID SPACING    1
Info: PME CALCULATION WILL BE PERFORMED ON GPU
Info: FULL ELECTROSTATIC EVALUATION FREQUENCY      2
Info: USING VERLET I (r-RESPA) MTS SCHEME.
Info: C1 SPLITTING OF LONG RANGE ELECTROSTATICS
Info: PLACING ATOMS IN PATCHES BY HYDROGEN GROUPS
Info: RIGID BONDS TO HYDROGEN : ALL
Info:         ERROR TOLERANCE : 1e-08
Info:          MAX ITERATIONS : 100
Info: RIGID WATER USING SETTLE ALGORITHM
Info: RANDOM NUMBER SEED     1742532520
Info: USE HYDROGEN BONDS?    NO
Info: Using AMBER format force field!
Info: AMBER PARM FILE        mobley_2410897.prmtop
Info: COORDINATE PDB         mobley_2410897.pdb
Info: Exclusions will be read from PARM file!
Info: SCNB (VDW SCALING)     2
Info: USING ARITHMETIC MEAN TO COMBINE L-J SIGMA PARAMETERS
Info: BINARY COORDINATES     mobley_2410897_equil.coor
Info: SUMMARY OF PARAMETERS:
Info: 7 BONDS
Info: 8 ANGLES
Info:   8 HARMONIC
Info:   0 COSINE-BASED
Info: 4 DIHEDRAL
Info: 0 IMPROPER
Info: 0 CROSSTERM
Info: 0 VDW
Info: 28 VDW_PAIRS
Info: 0 NBTHOLE_PAIRS
Info: To read alchdata from file: mobley_2410897.pdb
Info: To read alchflag data from column: 5
Info: STRUCTURE SUMMARY:
Info: 2968 ATOMS
Info: 2967 BONDS
Info: 15 ANGLES
Info: 15 DIHEDRALS
Info: 0 IMPROPERS
Info: 0 CROSSTERMS
Info: 2997 EXCLUSIONS
Info: 2965 RIGID BONDS
Info: ALCH: 0 ATOMS TO DISAPPEAR IN FINAL STATE
Info: ALCH: 10 ATOMS TO APPEAR IN FINAL STATE
Info: 5939 DEGREES OF FREEDOM
Info: 989 HYDROGEN GROUPS
Info: 4 ATOMS IN LARGEST HYDROGEN GROUP
Info: 989 MIGRATION GROUPS
Info: 4 ATOMS IN LARGEST MIGRATION GROUP
Info: TOTAL MASS = 17808.9 amu
Info: TOTAL CHARGE = -0.000100013 e
Info: MASS DENSITY = 0.969019 g/cm^3
Info: ATOM DENSITY = 0.0972525 atoms/A^3
Info: ADDED 0 IMPLICIT EXCLUSIONS
Info: NONBONDED TABLE R-SQUARED SPACING: 0.0625
Info: NONBONDED TABLE SIZE: 705 POINTS
Info: REDUCING NUMBER OF PATCHES TO IMPROVE LOAD BALANCE
Info: REMOVING COM VELOCITY -0.0120205 0.179421 0.0631996
Info: Use 3D box decompostion in PME FFT.
Info: Updated CUDA force table with 4096 elements.
Info: Updated CUDA LJ table with 7 x 7 elements.
Info: Found 13 unique exclusion lists needing 20 bytes
TCL: Running for 1500000 steps
ETITLE: TS BOND ANGLE DIHED IMPRP ELECT VDW BOUNDARY MISC KINETIC TOTAL TEMP POTENTIAL TOTALAVG TEMPAVG PRESSURE GPRESSURE VOLUME PRESSAVG GPRESSAVG
ENERGY: 0 0.6159 5.3232 1.3916 0.0000 -10719.1309 1384.3419 0.0000 0.0000 1785.3749 -7542.0834 302.5565 -9327.4583 -7542.0834 302.5565 -506.0456 -413.5104 30518.4854 -506.0456 -413.5104
ENERGY: 300000 1.2124 8.3666 1.0884 0.0000 -10816.4772 1479.4533 0.0000 0.0000 1742.5240 -7583.8326 295.2948 -9326.3565 -7553.4884 301.5912 381.0383 383.2523 30306.0001 75.3728 129.0896
ENERGY: 600000 0.0851 3.0392 1.8437 0.0000 -10692.0417 1378.1486 0.0000 0.0000 1823.2901 -7485.6350 308.9818 -9308.9251 -7550.5304 301.3138 -594.0415 -541.9614 30875.4120 -284.6693 -229.9202
ENERGY: 900000 0.3440 3.9830 0.4901 0.0000 -10775.2669 1405.8062 0.0000 0.0000 1716.2397 -7648.4038 290.8406 -9364.6435 -7549.0566 299.8692 -458.6053 -375.7569 30354.1936 -265.7412 -200.9111
ENERGY: 1200000 0.0007 1.6388 1.6937 0.0000 -10821.8824 1491.4493 0.0000 0.0000 1833.7364 -7493.3636 310.7520 -9327.0999 -7545.9030 300.2154 371.4016 372.5891 30603.5057 -215.6822 -156.7990
ENERGY: 1500000 0.8636 3.2139 1.1194 0.0000 -10792.3635 1467.7983 0.0000 0.0000 1784.0270 -7535.3413 302.3281 -9319.3683 -7543.1962 300.6263 187.4856 306.9130 30173.4601 -72.0422 -7.6466
TCL: Running FEP window   2: Lambda1 0.95   Lambda2 0.8999999999999999 [dLambda -0.050000000000000044]
TCL: Setting parameter firsttimestep to 0
TCL: Setting parameter alchLambda to 0.95
Info: NONBONDED TABLE R-SQUARED SPACING: 0.0625
Info: NONBONDED TABLE SIZE: 705 POINTS
TCL: Setting parameter alchLambda2 to 0.8999999999999999
Info: NONBONDED TABLE R-SQUARED SPACING: 0.0625
Info: NONBONDED TABLE SIZE: 705 POINTS
TCL: Running for 1500000 steps
ETITLE: TS BOND ANGLE DIHED IMPRP ELECT VDW BOUNDARY MISC KINETIC TOTAL TEMP POTENTIAL TOTALAVG TEMPAVG PRESSURE GPRESSURE VOLUME PRESSAVG GPRESSAVG
ENERGY: 0 0.8636 3.2139 1.1194 0.0000 -10791.0056 1467.3881 0.0000 0.0000 1783.1199 -7535.3006 302.1744 -9318.4205 -7535.3006 302.1744 213.8707 299.7124 30173.4601 213.8707 299.7124
ENERGY: 300000 0.7338 6.3826 0.9335 0.0000 -10849.7451 1466.7523 0.0000 0.0000 1746.7396 -7628.2032 296.0092 -9374.9428 -7572.2900 300.8457 24.6356 57.6529 30454.8565 -127.9217 -54.0752
ENERGY: 600000 0.3722 3.3880 0.4373 0.0000 -10923.0547 1484.4389 0.0000 0.0000 1723.7106 -7710.7077 292.1066 -9434.4182 -7589.9809 299.4411 7.4921 78.8436 30428.2049 -199.5975 -125.5735
ENERGY: 900000 0.3649 4.3122 0.5877 0.0000 -10778.3412 1431.2927 0.0000 0.0000 1778.3421 -7563.4415 301.3647 -9341.7835 -7569.4579 300.0875 -58.1326 88.6262 30298.4368 -130.0091 -43.5580
ENERGY: 1200000 0.3360 3.1622 2.6291 0.0000 -10905.0233 1549.8344 0.0000 0.0000 1770.6739 -7578.3878 300.0652 -9349.0616 -7559.9408 299.6697 648.4224 730.6492 30481.6586 -104.5142 -16.9171
ENERGY: 1500000 0.3003 3.2356 0.7184 0.0000 -10779.2035 1501.9074 0.0000 0.0000 1774.2187 -7498.8231 300.6659 -9273.0418 -7546.2776 299.8703 414.7246 442.9468 30810.7725 -51.2505 29.2779
TCL: Running FEP window   3: Lambda1 0.8999999999999999 Lambda2 0.8499999999999999 [dLambda -0.050000000000000044]
TCL: Setting parameter firsttimestep to 0
TCL: Setting parameter alchLambda to 0.8999999999999999
Info: NONBONDED TABLE R-SQUARED SPACING: 0.0625
Info: NONBONDED TABLE SIZE: 705 POINTS
TCL: Setting parameter alchLambda2 to 0.8499999999999999
Info: NONBONDED TABLE R-SQUARED SPACING: 0.0625
Info: NONBONDED TABLE SIZE: 705 POINTS
TCL: Running for 1500000 steps
ETITLE: TS BOND ANGLE DIHED IMPRP ELECT VDW BOUNDARY MISC KINETIC TOTAL TEMP POTENTIAL TOTALAVG TEMPAVG PRESSURE GPRESSURE VOLUME PRESSAVG GPRESSAVG
ENERGY: 0 0.3003 3.2356 0.7184 0.0000 -10778.3873 1502.1158 0.0000 0.0000 1773.3586 -7498.6586 300.5202 -9272.0172 -7498.6586 300.5202 367.2293 441.9212 30810.7725 367.2293 441.9212
ENERGY: 300000 0.0846 3.0788 0.1404 0.0000 -10833.9689 1452.7684 0.0000 0.0000 1743.2004 -7634.6962 295.4094 -9377.8966 -7556.3368 298.1669 -0.7499 89.6681 30180.4677 183.5259 229.4414
ENERGY: 600000 0.6135 4.3679 0.4156 0.0000 -10678.2227 1395.2981 0.0000 0.0000 1693.6032 -7583.9243 287.0045 -9277.5275 -7543.6578 298.7409 -272.8235 -178.7403 30592.1097 216.6069 269.1841
ENERGY: 900000 0.0880 3.1806 0.1754 0.0000 -10797.8045 1480.4922 0.0000 0.0000 1782.7097 -7531.1585 302.1048 -9313.8682 -7552.4681 298.7109 200.4865 258.9760 30769.2507 70.5775 129.6581
ENERGY: 1200000 0.8869 4.0600 0.5114 0.0000 -10684.4763 1453.4592 0.0000 0.0000 1792.7891 -7432.7696 303.8129 -9225.5587 -7544.4699 299.3225 179.6316 277.5123 30720.7021 102.9081 161.7425
ENERGY: 1500000 0.3479 2.3138 0.6860 0.0000 -10815.2806 1499.8083 0.0000 0.0000 1795.0723 -7517.0523 304.1999 -9312.1246 -7553.8048 299.5516 264.9900 315.0546 30711.4393 103.3897 160.6599
TCL: Running FEP window   4: Lambda1 0.8499999999999999 Lambda2 0.7999999999999998 [dLambda -0.050000000000000044]
TCL: Setting parameter firsttimestep to 0
TCL: Setting parameter alchLambda to 0.8499999999999999
Info: NONBONDED TABLE R-SQUARED SPACING: 0.0625
Info: NONBONDED TABLE SIZE: 705 POINTS
TCL: Setting parameter alchLambda2 to 0.7999999999999998
Info: NONBONDED TABLE R-SQUARED SPACING: 0.0625
Info: NONBONDED TABLE SIZE: 705 POINTS
TCL: Running for 1500000 steps
ETITLE: TS BOND ANGLE DIHED IMPRP ELECT VDW BOUNDARY MISC KINETIC TOTAL TEMP POTENTIAL TOTALAVG TEMPAVG PRESSURE GPRESSURE VOLUME PRESSAVG GPRESSAVG
ENERGY: 0 0.3479 2.3138 0.6860 0.0000 -10814.0948 1499.6858 0.0000 0.0000 1794.2040 -7516.8573 304.0527 -9311.0614 -7516.8573 304.0527 229.6837 311.3801 30711.4393 229.6837 311.3801
ENERGY: 300000 0.8527 4.6129 0.1296 0.0000 -10735.3281 1364.0456 0.0000 0.0000 1761.1993 -7604.4879 298.4596 -9365.6873 -7561.4173 297.4293 -860.0727 -758.4550 30609.2178 -217.1940 -144.3326
ENERGY: 600000 1.3267 3.1045 1.1471 0.0000 -10704.9089 1389.7871 0.0000 0.0000 1771.8544 -7537.6891 300.2653 -9309.5435 -7556.9161 299.8656 -478.8645 -363.8673 30562.8578 -165.8967 -96.9561
ENERGY: 900000 0.3172 3.3708 0.5568 0.0000 -10783.6579 1466.9581 0.0000 0.0000 1784.9745 -7527.4804 302.4886 -9312.4549 -7555.5525 300.6010 347.6330 407.7506 30151.1525 -29.9578 32.9750
ENERGY: 1200000 0.4022 8.1655 0.5048 0.0000 -10787.4425 1481.0516 0.0000 0.0000 1761.7301 -7535.5882 298.5496 -9297.3183 -7541.8504 300.2081 290.0183 341.7920 30510.1480 -28.0981 38.6362
ENERGY: 1500000 0.4146 4.0795 0.4703 0.0000 -10895.8022 1550.9648 0.0000 0.0000 1713.1180 -7626.7550 290.3116 -9339.8730 -7542.8080 299.4957 561.4707 635.3358 30775.9746 30.6683 91.1500
TCL: Running FEP window   5: Lambda1 0.7999999999999998 Lambda2 0.7499999999999998 [dLambda -0.050000000000000044]
TCL: Setting parameter firsttimestep to 0
TCL: Setting parameter alchLambda to 0.7999999999999998
Info: NONBONDED TABLE R-SQUARED SPACING: 0.0625
Info: NONBONDED TABLE SIZE: 705 POINTS
TCL: Setting parameter alchLambda2 to 0.7499999999999998
Info: NONBONDED TABLE R-SQUARED SPACING: 0.0625
Info: NONBONDED TABLE SIZE: 705 POINTS
TCL: Running for 1500000 steps
ETITLE: TS BOND ANGLE DIHED IMPRP ELECT VDW BOUNDARY MISC KINETIC TOTAL TEMP POTENTIAL TOTALAVG TEMPAVG PRESSURE GPRESSURE VOLUME PRESSAVG GPRESSAVG
ENERGY: 0 0.4146 4.0795 0.4703 0.0000 -10894.6797 1550.0110 0.0000 0.0000 1712.2537 -7627.4506 290.1651 -9339.7043 -7627.4506 290.1651 549.6083 620.4064 30775.9746 549.6083 620.4064
ENERGY: 300000 1.0973 2.9982 0.2728 0.0000 -10906.5299 1572.1969 0.0000 0.0000 1790.1589 -7539.8057 303.3672 -9329.9646 -7550.0479 298.9597 661.6659 833.6877 30409.7654 277.4364 355.6264
ENERGY: 600000 0.0456 3.7192 0.9738 0.0000 -10851.0099 1494.7002 0.0000 0.0000 1735.7094 -7615.8617 294.1400 -9351.5711 -7546.5546 299.7750 545.6971 625.6296 29993.1689 307.2566 364.5897
ENERGY: 900000 0.1703 3.7529 0.2302 0.0000 -10836.9889 1542.5717 0.0000 0.0000 1816.9417 -7473.3221 307.9059 -9290.2638 -7552.4344 298.9790 804.3063 825.2694 30752.9089 248.7787 293.0914
ENERGY: 1200000 0.0939 3.4685 2.4721 0.0000 -10769.2449 1407.9996 0.0000 0.0000 1759.9308 -7595.2800 298.2446 -9355.2108 -7563.6595 298.6521 -442.3357 -356.9465 30319.3978 193.4574 242.6356
ENERGY: 1500000 1.3215 3.3836 0.1952 0.0000 -10854.9518 1495.0354 0.0000 0.0000 1801.6536 -7553.3625 305.3151 -9355.0161 -7560.5842 299.4017 282.7719 334.7578 30631.2059 182.4187 236.0713
TCL: Running FEP window   6: Lambda1 0.7499999999999998 Lambda2 0.6999999999999997 [dLambda -0.050000000000000044]
TCL: Setting parameter firsttimestep to 0
TCL: Setting parameter alchLambda to 0.7499999999999998
Info: NONBONDED TABLE R-SQUARED SPACING: 0.0625
Info: NONBONDED TABLE SIZE: 705 POINTS
TCL: Setting parameter alchLambda2 to 0.6999999999999997
Info: NONBONDED TABLE R-SQUARED SPACING: 0.0625
Info: NONBONDED TABLE SIZE: 705 POINTS
TCL: Running for 1500000 steps
ETITLE: TS BOND ANGLE DIHED IMPRP ELECT VDW BOUNDARY MISC KINETIC TOTAL TEMP POTENTIAL TOTALAVG TEMPAVG PRESSURE GPRESSURE VOLUME PRESSAVG GPRESSAVG
ENERGY: 0 1.3215 3.3836 0.1952 0.0000 -10853.1850 1494.1394 0.0000 0.0000 1800.7542 -7553.3911 305.1627 -9354.1453 -7553.3911 305.1627 246.8264 323.4925 30631.2059 246.8264 323.4925
ENERGY: 300000 2.1461 3.6226 0.1985 0.0000 -10665.3172 1371.7376 0.0000 0.0000 1791.1747 -7496.4376 303.5394 -9287.6123 -7522.6853 303.2057 -501.4133 -443.2123 30353.3428 -197.2555 -156.9611
ENERGY: 600000 0.0633 6.2871 0.8276 0.0000 -10718.0827 1432.9672 0.0000 0.0000 1785.9448 -7491.9927 302.6531 -9277.9375 -7532.1304 301.1916 14.4252 80.7103 30315.4247 -219.8948 -174.2868
ENERGY: 900000 1.8691 5.0914 1.9287 0.0000 -10769.7237 1457.6483 0.0000 0.0000 1794.2208 -7508.9654 304.0556 -9303.1862 -7529.2885 301.1152 306.6115 376.0651 30118.5255 -88.1952 -38.2575
ENERGY: 1200000 0.2916 4.0829 0.3046 0.0000 -10626.5431 1384.8988 0.0000 0.0000 1768.3818 -7468.5834 299.6768 -9236.9653 -7519.2572 301.2780 -437.3264 -341.8035 30755.1559 -171.1017 -116.7844
ENERGY: 1500000 0.3490 3.5468 1.0408 0.0000 -10678.1568 1378.6034 0.0000 0.0000 1770.1226 -7524.4942 299.9718 -9294.6168 -7522.8331 300.3663 -446.0748 -351.2894 30516.8540 -252.4695 -189.2803
TCL: Running FEP window   7: Lambda1 0.6999999999999997 Lambda2 0.6499999999999997 [dLambda -0.050000000000000044]
TCL: Setting parameter firsttimestep to 0
TCL: Setting parameter alchLambda to 0.6999999999999997
Info: NONBONDED TABLE R-SQUARED SPACING: 0.0625
Info: NONBONDED TABLE SIZE: 705 POINTS
TCL: Setting parameter alchLambda2 to 0.6499999999999997
Info: NONBONDED TABLE R-SQUARED SPACING: 0.0625
Info: NONBONDED TABLE SIZE: 705 POINTS
TCL: Running for 1500000 steps
ETITLE: TS BOND ANGLE DIHED IMPRP ELECT VDW BOUNDARY MISC KINETIC TOTAL TEMP POTENTIAL TOTALAVG TEMPAVG PRESSURE GPRESSURE VOLUME PRESSAVG GPRESSAVG
ENERGY: 0 0.3490 3.5468 1.0408 0.0000 -10677.2309 1377.9405 0.0000 0.0000 1769.2082 -7525.1456 299.8168 -9294.3538 -7525.1456 299.8168 -452.1523 -360.0108 30516.8540 -452.1523 -360.0108
ENERGY: 300000 0.2111 3.6075 1.3046 0.0000 -10776.3494 1441.1216 0.0000 0.0000 1818.6753 -7511.4292 308.1997 -9330.1046 -7536.1290 303.1176 -101.6033 4.7434 30529.0577 -465.4882 -377.0285
ENERGY: 600000 0.2336 5.1146 0.1359 0.0000 -10681.9758 1413.6442 0.0000 0.0000 1748.4206 -7514.4269 296.2941 -9262.8474 -7533.3137 301.2214 -50.8584 5.3993 30485.1435 -334.9810 -260.1338
ENERGY: 900000 0.5292 1.9302 0.3736 0.0000 -10822.0850 1521.7715 0.0000 0.0000 1759.2515 -7538.2289 298.1295 -9297.4804 -7546.8426 299.8199 662.1091 717.3351 30125.8923 -80.6943 3.9196
ENERGY: 1200000 0.1293 1.7916 1.6885 0.0000 -10757.5424 1456.3544 0.0000 0.0000 1772.9859 -7524.5926 300.4570 -9297.5785 -7548.0153 300.1999 58.5105 81.7168 30550.2995 -11.5082 65.9437
ENERGY: 1500000 0.2143 2.2404 0.4068 0.0000 -10810.2429 1458.9760 0.0000 0.0000 1795.9295 -7552.4759 304.3451 -9348.4054 -7549.5170 300.6943 42.3470 179.6984 30438.9208 23.9393 101.9852
TCL: Running FEP window   8: Lambda1 0.6499999999999997 Lambda2 0.5999999999999996 [dLambda -0.050000000000000044]
TCL: Setting parameter firsttimestep to 0
TCL: Setting parameter alchLambda to 0.6499999999999997
Info: NONBONDED TABLE R-SQUARED SPACING: 0.0625
Info: NONBONDED TABLE SIZE: 705 POINTS
TCL: Setting parameter alchLambda2 to 0.5999999999999996
Info: NONBONDED TABLE R-SQUARED SPACING: 0.0625
Info: NONBONDED TABLE SIZE: 705 POINTS
TCL: Running for 1500000 steps
ETITLE: TS BOND ANGLE DIHED IMPRP ELECT VDW BOUNDARY MISC KINETIC TOTAL TEMP POTENTIAL TOTALAVG TEMPAVG PRESSURE GPRESSURE VOLUME PRESSAVG GPRESSAVG
ENERGY: 0 0.2143 2.2404 0.4068 0.0000 -10809.3784 1458.7341 0.0000 0.0000 1795.0238 -7552.7591 304.1916 -9347.7829 -7552.7591 304.1916 91.4420 172.1474 30438.9208 91.4420 172.1474
ENERGY: 300000 0.6234 3.8678 1.0364 0.0000 -10697.5844 1415.6734 0.0000 0.0000 1753.3923 -7522.9911 297.1366 -9276.3834 -7554.3402 298.9355 -303.4812 -222.4984 30722.1713 -243.7590 -175.3262
ENERGY: 600000 0.1959 3.1614 0.9852 0.0000 -10739.6043 1446.7328 0.0000 0.0000 1766.6977 -7521.8313 299.3914 -9288.5290 -7540.7762 297.6884 5.7300 25.7093 30656.3201 -143.6021 -91.4663
ENERGY: 900000 0.5624 4.0476 0.3719 0.0000 -10967.7529 1619.5809 0.0000 0.0000 1796.4369 -7546.7532 304.4311 -9343.1901 -7537.5127 299.0285 1250.9249 1265.2493 30384.7659 -25.5651 22.2467
ENERGY: 1200000 2.1548 3.7973 0.3841 0.0000 -10793.3381 1509.0296 0.0000 0.0000 1767.5440 -7510.4284 299.5348 -9277.9724 -7538.4432 298.9685 601.2071 662.4020 30360.5820 12.6169 60.9767
ENERGY: 1500000 0.6088 6.5115 0.5876 0.0000 -10790.6451 1424.0710 0.0000 0.0000 1701.9689 -7656.8972 288.4222 -9358.8661 -7540.3562 298.6207 -244.3917 -203.4000 30434.3714 39.7344 86.9141
TCL: Running FEP window   9: Lambda1 0.5999999999999996 Lambda2 0.5499999999999996 [dLambda -0.050000000000000044]
TCL: Setting parameter firsttimestep to 0
TCL: Setting parameter alchLambda to 0.5999999999999996
Info: NONBONDED TABLE R-SQUARED SPACING: 0.0625
Info: NONBONDED TABLE SIZE: 705 POINTS
TCL: Setting parameter alchLambda2 to 0.5499999999999996
Info: NONBONDED TABLE R-SQUARED SPACING: 0.0625
Info: NONBONDED TABLE SIZE: 705 POINTS
TCL: Running for 1500000 steps
ETITLE: TS BOND ANGLE DIHED IMPRP ELECT VDW BOUNDARY MISC KINETIC TOTAL TEMP POTENTIAL TOTALAVG TEMPAVG PRESSURE GPRESSURE VOLUME PRESSAVG GPRESSAVG
ENERGY: 0 0.6088 6.5115 0.5876 0.0000 -10788.5734 1423.6413 0.0000 0.0000 1701.1112 -7656.1129 288.2769 -9357.2241 -7656.1129 288.2769 -294.3412 -204.4926 30434.3714 -294.3412 -204.4926
ENERGY: 300000 0.6919 2.4572 0.1279 0.0000 -10706.6184 1397.7145 0.0000 0.0000 1771.1297 -7534.4973 300.1425 -9305.6270 -7554.1218 299.4005 -397.6205 -295.4653 30633.0807 -455.9896 -389.4618
ENERGY: 600000 0.1079 3.9434 0.4385 0.0000 -10747.8610 1405.5633 0.0000 0.0000 1715.0795 -7622.7283 290.6440 -9337.8079 -7556.3925 298.5208 -419.8476 -403.8420 30548.4713 -306.9049 -239.3578
ENERGY: 900000 1.0070 4.3178 0.7431 0.0000 -10696.6661 1391.9524 0.0000 0.0000 1786.1595 -7512.4863 302.6895 -9298.6458 -7547.0925 298.2446 -498.5829 -430.4767 30704.0506 -262.9284 -197.6837
ENERGY: 1200000 0.6475 3.1261 0.4894 0.0000 -10604.3584 1315.1982 0.0000 0.0000 1810.0860 -7474.8112 306.7441 -9284.8972 -7542.6933 299.4500 -904.5469 -845.6655 30435.4741 -187.2658 -126.9156
ENERGY: 1500000 0.4276 7.5520 1.3448 0.0000 -10825.7003 1499.5856 0.0000 0.0000 1797.4033 -7519.3871 304.5949 -9316.7904 -7539.6585 300.3956 748.9494 760.5495 30107.6671 -45.6276 8.2164
TCL: Running FEP window  10: Lambda1 0.5499999999999996 Lambda2 0.4999999999999996 [dLambda -0.04999999999999999]
TCL: Setting parameter firsttimestep to 0
TCL: Setting parameter alchLambda to 0.5499999999999996
Info: NONBONDED TABLE R-SQUARED SPACING: 0.0625
Info: NONBONDED TABLE SIZE: 705 POINTS
TCL: Setting parameter alchLambda2 to 0.4999999999999996
Info: NONBONDED TABLE R-SQUARED SPACING: 0.0625
Info: NONBONDED TABLE SIZE: 705 POINTS
TCL: Running for 1500000 steps
ETITLE: TS BOND ANGLE DIHED IMPRP ELECT VDW BOUNDARY MISC KINETIC TOTAL TEMP POTENTIAL TOTALAVG TEMPAVG PRESSURE GPRESSURE VOLUME PRESSAVG GPRESSAVG
ENERGY: 0 0.4276 7.5520 1.3448 0.0000 -10824.3013 1499.3592 0.0000 0.0000 1796.5359 -7519.0818 304.4479 -9315.6177 -7519.0818 304.4479 676.2238 757.9810 30107.6671 676.2238 757.9810
ENERGY: 300000 0.2317 5.4812 0.3223 0.0000 -10825.2408 1491.1249 0.0000 0.0000 1757.6297 -7570.4510 297.8547 -9328.0807 -7551.3212 301.9847 152.4974 203.2720 30733.8244 244.1309 309.1899
ENERGY: 600000 1.7038 4.1814 0.4963 0.0000 -10786.6302 1463.7149 0.0000 0.0000 1757.3912 -7559.1425 297.8143 -9316.5337 -7558.4202 301.3791 282.6899 319.2006 30249.7243 180.5197 247.1260
ENERGY: 900000 0.0347 3.5730 0.7137 0.0000 -10747.9001 1458.3154 0.0000 0.0000 1844.3987 -7440.8645 312.5589 -9285.2632 -7555.2495 301.2901 46.4157 140.8318 30929.6281 88.0718 158.7683
ENERGY: 1200000 0.1953 2.8871 0.6236 0.0000 -10799.5136 1476.7572 0.0000 0.0000 1776.6617 -7542.3887 301.0799 -9319.0503 -7558.7715 301.0350 134.1230 190.3802 30650.7446 84.9864 156.5408
ENERGY: 1500000 0.1913 4.1076 0.0794 0.0000 -10749.5698 1401.5303 0.0000 0.0000 1774.5965 -7569.0647 300.7299 -9343.6612 -7567.6663 301.3177 -257.9806 -122.4764 29981.5007 64.3602 137.8653
TCL: Running FEP window  11: Lambda1 0.4999999999999996 Lambda2 0.4499999999999996 [dLambda -0.04999999999999999]
TCL: Setting parameter firsttimestep to 0
TCL: Setting parameter alchLambda to 0.4999999999999996
Info: NONBONDED TABLE R-SQUARED SPACING: 0.0625
Info: NONBONDED TABLE SIZE: 705 POINTS
TCL: Setting parameter alchLambda2 to 0.4499999999999996
Info: NONBONDED TABLE R-SQUARED SPACING: 0.0625
Info: NONBONDED TABLE SIZE: 705 POINTS
TCL: Running for 1500000 steps
ETITLE: TS BOND ANGLE DIHED IMPRP ELECT VDW BOUNDARY MISC KINETIC TOTAL TEMP POTENTIAL TOTALAVG TEMPAVG PRESSURE GPRESSURE VOLUME PRESSAVG GPRESSAVG
ENERGY: 0 0.1913 4.1076 0.0794 0.0000 -10748.5252 1401.3396 0.0000 0.0000 1773.7159 -7569.0914 300.5807 -9342.8073 -7569.0914 300.5807 -209.6244 -121.1185 29981.5007 -209.6244 -121.1185
ENERGY: 300000 0.7378 8.0992 0.6431 0.0000 -10757.6702 1401.6140 0.0000 0.0000 1776.2348 -7570.3412 301.0076 -9346.5760 -7539.7367 299.8619 -536.3668 -482.0229 30431.6496 -364.6088 -316.1482
ENERGY: 600000 0.2316 2.3349 1.5200 0.0000 -10775.4487 1468.1546 0.0000 0.0000 1717.4257 -7585.7820 291.0416 -9303.2077 -7562.3234 298.8206 303.9946 333.3929 30198.9428 -429.6796 -387.6693
ENERGY: 900000 1.8281 2.0705 0.0359 0.0000 -10585.7875 1389.1323 0.0000 0.0000 1787.7504 -7404.9703 302.9591 -9192.7207 -7549.6616 299.0064 -347.1953 -274.1074 31009.0142 -371.5930 -320.8950
ENERGY: 1200000 0.0455 4.9411 0.3423 0.0000 -10667.5741 1322.1888 0.0000 0.0000 1786.7408 -7553.3154 302.7880 -9340.0563 -7554.7759 299.0164 -1082.9233 -1069.5437 30745.1351 -431.6455 -383.3685
ENERGY: 1500000 0.4022 6.8007 0.2535 0.0000 -10828.5751 1459.3789 0.0000 0.0000 1733.9085 -7627.8313 293.8348 -9361.7398 -7553.5128 298.7382 -210.3043 -155.0669 30843.6754 -388.3826 -338.2913
TCL: Running FEP window  12: Lambda1 0.4499999999999996 Lambda2 0.39999999999999963 [dLambda -0.04999999999999999]
TCL: Setting parameter firsttimestep to 0
TCL: Setting parameter alchLambda to 0.4499999999999996
Info: NONBONDED TABLE R-SQUARED SPACING: 0.0625
Info: NONBONDED TABLE SIZE: 705 POINTS
TCL: Setting parameter alchLambda2 to 0.39999999999999963
Info: NONBONDED TABLE R-SQUARED SPACING: 0.0625
Info: NONBONDED TABLE SIZE: 705 POINTS
TCL: Running for 1500000 steps
ETITLE: TS BOND ANGLE DIHED IMPRP ELECT VDW BOUNDARY MISC KINETIC TOTAL TEMP POTENTIAL TOTALAVG TEMPAVG PRESSURE GPRESSURE VOLUME PRESSAVG GPRESSAVG
ENERGY: 0 0.4022 6.8007 0.2535 0.0000 -10828.5772 1459.4447 0.0000 0.0000 1733.0265 -7628.6495 293.6853 -9361.6760 -7628.6495 293.6853 -242.1962 -158.3573 30843.6754 -242.1962 -158.3573
ENERGY: 300000 0.8843 6.9420 0.2693 0.0000 -10645.4815 1341.8233 0.0000 0.0000 1778.0255 -7517.5371 301.3110 -9295.5626 -7593.9640 297.8030 -737.1333 -654.3259 30460.5415 -264.0248 -181.2928
ENERGY: 600000 0.3717 2.2201 0.1181 0.0000 -10577.0438 1280.5408 0.0000 0.0000 1779.3175 -7514.4755 301.5300 -9293.7930 -7565.7818 298.1207 -1341.9739 -1230.2981 30859.6127 -367.8054 -289.5739
ENERGY: 900000 0.5980 3.8129 0.1714 0.0000 -10702.6635 1385.5434 0.0000 0.0000 1761.1474 -7551.3904 298.4508 -9312.5378 -7584.8260 297.0400 -552.2130 -396.0318 30522.8164 -319.1252 -241.2445
ENERGY: 1200000 0.2169 3.5057 0.3183 0.0000 -10790.4245 1492.0752 0.0000 0.0000 1785.3947 -7508.9138 302.5598 -9294.3085 -7580.9394 297.3550 347.1835 399.4358 30466.0315 -207.0390 -129.2114
ENERGY: 1500000 1.4843 3.9417 0.3243 0.0000 -10628.4386 1363.0924 0.0000 0.0000 1811.2226 -7448.3733 306.9367 -9259.5959 -7564.0579 298.2057 -660.5182 -583.4670 30580.0432 -233.5362 -163.5765
TCL: Running FEP window  13: Lambda1 0.39999999999999963 Lambda2 0.34999999999999964 [dLambda -0.04999999999999999]
TCL: Setting parameter firsttimestep to 0
TCL: Setting parameter alchLambda to 0.39999999999999963
Info: NONBONDED TABLE R-SQUARED SPACING: 0.0625
Info: NONBONDED TABLE SIZE: 705 POINTS
TCL: Setting parameter alchLambda2 to 0.34999999999999964
Info: NONBONDED TABLE R-SQUARED SPACING: 0.0625
Info: NONBONDED TABLE SIZE: 705 POINTS
TCL: Running for 1500000 steps
ETITLE: TS BOND ANGLE DIHED IMPRP ELECT VDW BOUNDARY MISC KINETIC TOTAL TEMP POTENTIAL TOTALAVG TEMPAVG PRESSURE GPRESSURE VOLUME PRESSAVG GPRESSAVG
ENERGY: 0 1.4843 3.9417 0.3243 0.0000 -10628.4402 1363.2744 0.0000 0.0000 1810.3397 -7449.0757 306.7871 -9259.4154 -7449.0757 306.7871 -658.0309 -585.3387 30580.0432 -658.0309 -585.3387
ENERGY: 300000 0.2052 3.5236 0.3301 0.0000 -10633.5230 1342.2424 0.0000 0.0000 1759.3182 -7527.9034 298.1408 -9287.2216 -7509.5782 302.0750 -751.9052 -684.9889 30651.2438 -482.3294 -397.5141
ENERGY: 600000 0.2296 3.0020 1.5905 0.0000 -10735.0176 1442.8917 0.0000 0.0000 1770.6553 -7516.6486 300.0620 -9287.3038 -7526.3175 299.3097 -2.3747 110.3278 30450.0587 -151.4577 -62.6012
ENERGY: 900000 1.1536 1.7531 0.9698 0.0000 -10712.5647 1405.6070 0.0000 0.0000 1754.8180 -7548.2632 297.3782 -9303.0812 -7511.9184 299.9306 -405.1110 -347.6116 30695.5467 -137.6898 -54.8736
ENERGY: 1200000 0.3986 3.7898 0.8611 0.0000 -10889.6378 1508.5320 0.0000 0.0000 1772.5234 -7603.5329 300.3786 -9376.0563 -7520.2129 299.6278 387.7585 426.9983 30282.9560 -34.7278 39.6836
ENERGY: 1500000 0.1023 2.8312 3.2432 0.0000 -10722.5320 1388.9763 0.0000 0.0000 1762.2341 -7565.1448 298.6350 -9327.3789 -7518.6630 299.4397 -536.9826 -414.1305 30653.1270 -6.4638 70.4920
TCL: Running FEP window  14: Lambda1 0.34999999999999964 Lambda2 0.29999999999999966 [dLambda -0.04999999999999999]
TCL: Setting parameter firsttimestep to 0
TCL: Setting parameter alchLambda to 0.34999999999999964
Info: NONBONDED TABLE R-SQUARED SPACING: 0.0625
Info: NONBONDED TABLE SIZE: 705 POINTS
TCL: Setting parameter alchLambda2 to 0.29999999999999966
Info: NONBONDED TABLE R-SQUARED SPACING: 0.0625
Info: NONBONDED TABLE SIZE: 705 POINTS
TCL: Running for 1500000 steps
ETITLE: TS BOND ANGLE DIHED IMPRP ELECT VDW BOUNDARY MISC KINETIC TOTAL TEMP POTENTIAL TOTALAVG TEMPAVG PRESSURE GPRESSURE VOLUME PRESSAVG GPRESSAVG
ENERGY: 0 0.1023 2.8312 3.2432 0.0000 -10722.5307 1389.2483 0.0000 0.0000 1761.3400 -7565.7657 298.4834 -9327.1057 -7565.7657 298.4834 -502.1314 -413.4482 30653.1270 -502.1314 -413.4482
ENERGY: 300000 0.0589 3.0028 0.5931 0.0000 -10841.3354 1482.4307 0.0000 0.0000 1791.1791 -7564.0709 303.5401 -9355.2500 -7550.1007 302.4598 -13.9333 5.4620 30888.5217 -436.3966 -368.1777
ENERGY: 600000 0.7724 3.3197 0.2301 0.0000 -10619.9023 1320.3398 0.0000 0.0000 1824.9379 -7470.3024 309.2610 -9295.2403 -7513.9309 304.2714 -748.9992 -680.2206 30401.0543 -453.7634 -399.0478
ENERGY: 900000 0.7665 3.8043 0.1602 0.0000 -10662.2952 1375.3396 0.0000 0.0000 1783.0522 -7499.1725 302.1629 -9282.2246 -7514.0117 303.3403 -293.9061 -280.8076 30657.5929 -396.9126 -342.5027
ENERGY: 1200000 0.1994 3.1745 0.5140 0.0000 -10807.2083 1391.0990 0.0000 0.0000 1800.4633 -7611.7583 305.1134 -9412.2215 -7539.1371 302.2584 -745.3618 -756.4545 30637.4179 -364.3590 -323.0317
ENERGY: 1500000 0.2313 7.3967 2.0893 0.0000 -10830.9816 1482.8244 0.0000 0.0000 1775.5369 -7562.9031 300.8893 -9338.4400 -7539.0204 301.5990 209.6382 311.5934 30555.7384 -249.4679 -199.3291
TCL: Running FEP window  15: Lambda1 0.29999999999999966 Lambda2 0.24999999999999967 [dLambda -0.04999999999999999]
TCL: Setting parameter firsttimestep to 0
TCL: Setting parameter alchLambda to 0.29999999999999966
Info: NONBONDED TABLE R-SQUARED SPACING: 0.0625
Info: NONBONDED TABLE SIZE: 705 POINTS
TCL: Setting parameter alchLambda2 to 0.24999999999999967
Info: NONBONDED TABLE R-SQUARED SPACING: 0.0625
Info: NONBONDED TABLE SIZE: 705 POINTS
TCL: Running for 1500000 steps
ETITLE: TS BOND ANGLE DIHED IMPRP ELECT VDW BOUNDARY MISC KINETIC TOTAL TEMP POTENTIAL TOTALAVG TEMPAVG PRESSURE GPRESSURE VOLUME PRESSAVG GPRESSAVG
ENERGY: 0 0.2313 7.3967 2.0893 0.0000 -10830.9817 1482.8915 0.0000 0.0000 1774.6450 -7563.7279 300.7382 -9338.3729 -7563.7279 300.7382 223.7160 308.9956 30555.7384 223.7160 308.9956
ENERGY: 300000 0.3383 3.5928 0.1276 0.0000 -10895.8185 1567.7590 0.0000 0.0000 1703.5819 -7620.4190 288.6955 -9324.0009 -7543.9131 297.2240 1102.9404 1144.4214 30002.3816 443.5102 530.3464
ENERGY: 600000 1.2387 2.5329 0.3123 0.0000 -10724.9477 1415.6058 0.0000 0.0000 1750.4804 -7554.7776 296.6431 -9305.2581 -7569.0212 296.9597 -101.1390 -40.7004 30350.8844 57.7703 127.1997
ENERGY: 900000 1.9018 4.7297 3.4224 0.0000 -10732.2977 1434.7758 0.0000 0.0000 1763.8323 -7523.6357 298.9058 -9287.4680 -7554.2727 298.8349 -261.6774 -229.8623 30708.2571 66.4534 129.2795
ENERGY: 1200000 0.6515 3.7961 0.7759 0.0000 -10771.6283 1464.3362 0.0000 0.0000 1738.0900 -7563.9785 294.5434 -9302.0686 -7556.7235 298.7349 5.3292 65.3699 30684.9690 42.7802 104.6829
ENERGY: 1500000 0.4093 4.7450 1.6334 0.0000 -10793.9892 1437.6481 0.0000 0.0000 1743.8005 -7605.7529 295.5111 -9349.5535 -7549.9765 299.0803 -195.1631 -123.1618 30279.6686 3.3939 64.1701
TCL: Running FEP window  16: Lambda1 0.24999999999999967 Lambda2 0.19999999999999968 [dLambda -0.04999999999999999]
TCL: Setting parameter firsttimestep to 0
TCL: Setting parameter alchLambda to 0.24999999999999967
Info: NONBONDED TABLE R-SQUARED SPACING: 0.0625
Info: NONBONDED TABLE SIZE: 705 POINTS
TCL: Setting parameter alchLambda2 to 0.19999999999999968
Info: NONBONDED TABLE R-SQUARED SPACING: 0.0625
Info: NONBONDED TABLE SIZE: 705 POINTS
TCL: Running for 1500000 steps
ETITLE: TS BOND ANGLE DIHED IMPRP ELECT VDW BOUNDARY MISC KINETIC TOTAL TEMP POTENTIAL TOTALAVG TEMPAVG PRESSURE GPRESSURE VOLUME PRESSAVG GPRESSAVG
ENERGY: 0 0.4093 4.7450 1.6334 0.0000 -10793.9891 1437.2951 0.0000 0.0000 1742.9052 -7607.0012 295.3594 -9349.9063 -7607.0012 295.3594 -212.7225 -131.6011 30279.6686 -212.7225 -131.6011
ENERGY: 300000 0.9078 3.0523 0.6526 0.0000 -10765.0930 1478.9960 0.0000 0.0000 1721.6381 -7559.8463 291.7554 -9281.4844 -7567.2648 295.8329 517.2465 546.4676 30261.9834 253.0640 322.4792
ENERGY: 600000 0.1320 4.8405 0.8520 0.0000 -10849.9444 1458.5873 0.0000 0.0000 1748.8870 -7636.6456 296.3731 -9385.5326 -7607.8862 295.4263 -5.9557 54.2599 30041.1547 156.6303 217.7577
ENERGY: 900000 0.9310 2.2198 0.1989 0.0000 -10691.2856 1393.5438 0.0000 0.0000 1772.7051 -7521.6869 300.4094 -9294.3920 -7581.3250 298.4115 -393.0064 -334.9010 30661.8171 5.8570 69.3045
ENERGY: 1200000 0.9146 3.6044 0.8827 0.0000 -10787.4852 1472.6572 0.0000 0.0000 1759.1805 -7550.2458 298.1175 -9309.4264 -7582.1345 298.3906 183.7250 247.2409 30205.7162 83.8001 149.5272
ENERGY: 1500000 0.1561 2.8040 0.2405 0.0000 -10750.1859 1481.5704 0.0000 0.0000 1819.0563 -7446.3586 308.2643 -9265.4149 -7565.7995 298.8597 529.2046 580.2903 30341.0146 122.6188 187.5067
TCL: Running FEP window  17: Lambda1 0.19999999999999968 Lambda2 0.1499999999999997 [dLambda -0.04999999999999999]
TCL: Setting parameter firsttimestep to 0
TCL: Setting parameter alchLambda to 0.19999999999999968
Info: NONBONDED TABLE R-SQUARED SPACING: 0.0625
Info: NONBONDED TABLE SIZE: 705 POINTS
TCL: Setting parameter alchLambda2 to 0.1499999999999997
Info: NONBONDED TABLE R-SQUARED SPACING: 0.0625
Info: NONBONDED TABLE SIZE: 705 POINTS
TCL: Running for 1500000 steps
ETITLE: TS BOND ANGLE DIHED IMPRP ELECT VDW BOUNDARY MISC KINETIC TOTAL TEMP POTENTIAL TOTALAVG TEMPAVG PRESSURE GPRESSURE VOLUME PRESSAVG GPRESSAVG
ENERGY: 0 0.1561 2.8040 0.2405 0.0000 -10750.1857 1481.8587 0.0000 0.0000 1818.1345 -7446.9919 308.1081 -9265.1264 -7446.9919 308.1081 498.8659 582.8850 30341.0146 498.8659 582.8850
ENERGY: 300000 0.2248 1.8553 0.2089 0.0000 -10776.8937 1506.6165 0.0000 0.0000 1772.4801 -7495.5080 300.3713 -9267.9881 -7506.7327 303.0958 377.6559 444.4552 30658.7462 411.0457 476.9925
ENERGY: 600000 2.4995 4.3815 0.2964 0.0000 -10945.6242 1588.1880 0.0000 0.0000 1739.4128 -7610.8459 294.7676 -9350.2587 -7540.9254 298.3445 1092.7218 1081.9614 30302.5186 227.4731 287.9181
ENERGY: 900000 0.1164 6.1259 0.6120 0.0000 -10780.7071 1414.3514 0.0000 0.0000 1803.0130 -7556.4884 305.5455 -9359.5014 -7533.7731 301.2616 -556.5743 -498.1733 30822.3102 152.8747 213.2299
ENERGY: 1200000 0.8709 5.8648 0.5432 0.0000 -10794.5218 1441.7159 0.0000 0.0000 1771.5477 -7573.9792 300.2133 -9345.5269 -7544.0339 300.8594 67.4362 157.7215 30013.9895 70.3290 131.5656
ENERGY: 1500000 0.3768 5.8241 0.3620 0.0000 -10953.4837 1564.6456 0.0000 0.0000 1797.8222 -7584.4530 304.6659 -9382.2752 -7536.7461 301.9659 839.1018 848.0239 30004.4762 110.4397 166.7303
TCL: Running FEP window  18: Lambda1 0.1499999999999997 Lambda2 0.09999999999999969 [dLambda -0.05 ]
TCL: Setting parameter firsttimestep to 0
TCL: Setting parameter alchLambda to 0.1499999999999997
Info: NONBONDED TABLE R-SQUARED SPACING: 0.0625
Info: NONBONDED TABLE SIZE: 705 POINTS
TCL: Setting parameter alchLambda2 to 0.09999999999999969
Info: NONBONDED TABLE R-SQUARED SPACING: 0.0625
Info: NONBONDED TABLE SIZE: 705 POINTS
TCL: Running for 1500000 steps
ETITLE: TS BOND ANGLE DIHED IMPRP ELECT VDW BOUNDARY MISC KINETIC TOTAL TEMP POTENTIAL TOTALAVG TEMPAVG PRESSURE GPRESSURE VOLUME PRESSAVG GPRESSAVG
ENERGY: 0 0.3768 5.8241 0.3620 0.0000 -10953.4845 1564.8828 0.0000 0.0000 1796.9309 -7585.1079 304.5148 -9382.0388 -7585.1079 304.5148 774.1331 849.1824 30004.4762 774.1331 849.1824
ENERGY: 300000 1.1746 4.4923 1.2785 0.0000 -10771.9270 1430.9251 0.0000 0.0000 1752.6686 -7581.3880 297.0140 -9334.0565 -7572.7637 302.3051 -159.7533 -143.7573 30516.4108 -31.0629 8.1524
ENERGY: 600000 0.2817 2.7989 0.9061 0.0000 -10787.6039 1429.6791 0.0000 0.0000 1701.9915 -7651.9465 288.4260 -9353.9380 -7596.1199 298.9930 -199.7156 -93.5568 30075.0135 -152.7522 -101.2614
ENERGY: 900000 0.5998 2.7091 0.1011 0.0000 -10775.6906 1495.9802 0.0000 0.0000 1724.5152 -7551.7852 292.2430 -9276.3004 -7592.7818 298.2195 606.4567 735.1003 29999.3195 -131.8498 -69.1166
ENERGY: 1200000 0.6823 2.8274 0.2740 0.0000 -10773.9932 1498.0992 0.0000 0.0000 1724.1420 -7547.9682 292.1797 -9272.1103 -7583.0690 297.5628 389.8963 449.5515 30485.9144 -152.0560 -89.0569
ENERGY: 1500000 0.2415 3.3749 0.3993 0.0000 -10718.5505 1376.8747 0.0000 0.0000 1792.1540 -7545.5061 303.7053 -9337.6601 -7572.7487 298.2061 -547.9645 -503.9325 30378.2580 -111.2256 -52.2511
TCL: Running FEP window  19: Lambda1 0.09999999999999969 Lambda2 0.049999999999999684 [dLambda -0.05 ]
TCL: Setting parameter firsttimestep to 0
TCL: Setting parameter alchLambda to 0.09999999999999969
Info: NONBONDED TABLE R-SQUARED SPACING: 0.0625
Info: NONBONDED TABLE SIZE: 705 POINTS
TCL: Setting parameter alchLambda2 to 0.049999999999999684
Info: NONBONDED TABLE R-SQUARED SPACING: 0.0625
Info: NONBONDED TABLE SIZE: 705 POINTS
TCL: Running for 1500000 steps
ETITLE: TS BOND ANGLE DIHED IMPRP ELECT VDW BOUNDARY MISC KINETIC TOTAL TEMP POTENTIAL TOTALAVG TEMPAVG PRESSURE GPRESSURE VOLUME PRESSAVG GPRESSAVG
ENERGY: 0 0.2415 3.3749 0.3993 0.0000 -10718.5501 1377.0565 0.0000 0.0000 1791.3151 -7546.1629 303.5631 -9337.4780 -7546.1629 303.5631 -580.5076 -504.9174 30378.2580 -580.5076 -504.9174
ENERGY: 300000 0.7030 2.2933 0.0770 0.0000 -10713.0901 1356.7778 0.0000 0.0000 1762.0487 -7591.1903 298.6036 -9353.2390 -7548.1920 299.7247 -636.4046 -621.3231 30193.0980 -215.7667 -159.2405
ENERGY: 600000 0.5329 3.9980 0.9849 0.0000 -10790.4271 1425.2268 0.0000 0.0000 1803.0799 -7556.6045 305.5569 -9359.6845 -7537.6523 300.0225 -144.7114 -52.5518 30181.4712 -310.2008 -251.7291
ENERGY: 900000 0.2841 4.5745 3.1060 0.0000 -10943.1455 1532.6000 0.0000 0.0000 1746.7157 -7655.8651 296.0052 -9402.5809 -7550.9219 299.6435 591.5103 676.8314 30033.9598 -161.6587 -95.9118
ENERGY: 1200000 0.2107 3.0967 0.7926 0.0000 -10796.3321 1462.0352 0.0000 0.0000 1754.0443 -7576.1525 297.2471 -9330.1968 -7551.6660 299.5495 113.6417 182.3590 30387.5579 -55.9941 14.9998
ENERGY: 1500000 0.8935 7.5236 3.4651 0.0000 -10894.6548 1551.0974 0.0000 0.0000 1763.6450 -7568.0302 298.8741 -9331.6752 -7544.6231 299.9117 875.5925 951.4287 30241.0790 -29.5469 42.1058
TCL: Running FEP window  20: Lambda1 0.049999999999999684 Lambda2 0.0    [dLambda -0.049999999999999684]
TCL: Setting parameter firsttimestep to 0
TCL: Setting parameter alchLambda to 0.049999999999999684
Info: NONBONDED TABLE R-SQUARED SPACING: 0.0625
Info: NONBONDED TABLE SIZE: 705 POINTS
TCL: Setting parameter alchLambda2 to 0.0
Info: NONBONDED TABLE R-SQUARED SPACING: 0.0625
Info: NONBONDED TABLE SIZE: 705 POINTS
TCL: Running for 1500000 steps
ETITLE: TS BOND ANGLE DIHED IMPRP ELECT VDW BOUNDARY MISC KINETIC TOTAL TEMP POTENTIAL TOTALAVG TEMPAVG PRESSURE GPRESSURE VOLUME PRESSAVG GPRESSAVG
ENERGY: 0 0.8935 7.5236 3.4651 0.0000 -10894.6524 1550.9589 0.0000 0.0000 1762.7618 -7569.0496 298.7244 -9331.8114 -7569.0496 298.7244 854.7488 950.9425 30241.0790 854.7488 950.9425
ENERGY: 300000 0.3428 1.3181 0.2908 0.0000 -10659.1982 1350.1401 0.0000 0.0000 1735.5749 -7571.5314 294.1172 -9307.1063 -7539.8413 298.5053 -853.1350 -785.9258 30690.2663 32.8978 104.1856
ENERGY: 600000 0.1980 2.9420 1.3085 0.0000 -10888.0497 1468.0409 0.0000 0.0000 1743.5752 -7671.9851 295.4730 -9415.5604 -7578.0322 296.3569 -296.8272 -192.0522 30545.0281 -125.4636 -55.4455
ENERGY: 900000 0.2199 3.5156 0.1742 0.0000 -10768.5263 1430.5140 0.0000 0.0000 1794.7711 -7539.3315 304.1488 -9334.1027 -7551.7037 299.0932 -141.4801 -69.1401 30133.3982 -126.5138 -55.0316
ENERGY: 1200000 0.2741 2.2172 2.2577 0.0000 -10767.6373 1375.0110 0.0000 0.0000 1770.9670 -7616.9102 300.1149 -9387.8772 -7556.5573 300.2617 -772.6704 -737.1966 30461.0544 -64.7062 14.9761
ENERGY: 1500000 0.5020 3.4317 0.4119 0.0000 -10790.6961 1421.6904 0.0000 0.0000 1751.9957 -7612.6643 296.8999 -9364.6600 -7556.7033 299.9587 -283.5082 -294.0636 30238.7200 -100.1384 -23.1521
TCL: Exiting due to exit command.
