Info: SIMULATION PARAMETERS:
Info: TIMESTEP               2
Info: NUMBER OF STEPS        0
Info: STEPS PER CYCLE        10
Info: PERIODIC CELL BASIS 1  30.9756 0 0
Info: PERIODIC CELL BASIS 2  0 30.3328 0
Info: PERIODIC CELL BASIS 3  0 0 32.0496
Info: PERIODIC CELL CENTER   0 0 0
Info: WRAPPING WATERS AROUND PERIODIC BOUNDARIES ON OUTPUT.
Info: WRAPPING ALL CLUSTERS AROUND PERIODIC BOUNDARIES ON OUTPUT.
Info: FIRST LDB TIMESTEP     50
Info: LAST LDB TIMESTEP     -1
Info: HOM BACKGROUND SCALING 1
Info: PME BACKGROUND SCALING 1
Info: MIN ATOMS PER PATCH    40
Info: EMPTY PATCH LOAD       40 ATOMS
Info: VELOCITY FILE          mobley_628086_equil.vel
Info: CENTER OF MASS MOVING INITIALLY? NO
Info: DIELECTRIC             1
Info: EXCLUDE                SCALED ONE-FOUR
Info: 1-4 ELECTROSTATICS SCALED BY 0.833333
Info: MODIFIED 1-4 VDW PARAMETERS WILL BE USED
Info: DCD FILENAME           mobley_628086_prod.dcd
Info: DCD FREQUENCY          100000
Info: DCD FIRST STEP         100000
Info: DCD FILE WILL CONTAIN UNIT CELL DATA
Info: XST FILENAME           mobley_628086_prod.xst
Info: XST FREQUENCY          100000
Info: NO VELOCITY DCD OUTPUT
Info: NO FORCE DCD OUTPUT
Info: OUTPUT FILENAME        mobley_628086_prod
Info: BINARY OUTPUT FILES WILL BE USED
Info: RESTART FILENAME       mobley_628086_prod.restart
Info: RESTART FREQUENCY      100000
Info: BINARY RESTART FILES WILL BE USED
Info: CUTOFF                 9
Info: PAIRLIST DISTANCE      11
Info: PAIRLIST SHRINK RATE   0.01
Info: PAIRLIST GROW RATE     0.01
Info: PAIRLIST TRIGGER       0.3
Info: PAIRLISTS PER CYCLE    2
Info: PAIRLISTS ENABLED
Info: MARGIN                 2
Info: HYDROGEN GROUP CUTOFF  2.5
Info: PATCH DIMENSION        15.5
Info: ENERGY OUTPUT STEPS    100000
Info: ENERGY EVALUATION STEPS    100000
Info: OUTPUT ENERGY PRECISION 4
Info: CROSSTERM ENERGY INCLUDED IN DIHEDRAL
Info: TIMING OUTPUT STEPS    1000000
Info: PRESSURE OUTPUT STEPS  100000
Info: ALCHEMICAL FEP ON
Info: FEP CURRENT LAMBDA VALUE     1
Info: FEP COMPARISON LAMBDA VALUE  0.95
Info: FEP INTRA-ALCHEMICAL NON-BONDED INTERACTIONS WILL BE RETAINED
Info: FEP INTRA-ALCHEMICAL BONDED INTERACTIONS WILL BE RETAINED
Info: FEP VDW SHIFTING COEFFICIENT 5
Info: FEP ELEC. ACTIVE FOR ANNIHILATED PARTICLES BETWEEN LAMBDA = 0 AND LAMBDA = 0.5
Info: FEP ELEC. ACTIVE FOR EXNIHILATED PARTICLES BETWEEN LAMBDA = 0.5 AND LAMBDA = 1
Info: FEP VDW ACTIVE FOR ANNIHILATED PARTICLES BETWEEN LAMBDA = 0 AND LAMBDA = 1
Info: FEP VDW ACTIVE FOR EXNIHILATED PARTICLES BETWEEN LAMBDA = 0 AND LAMBDA = 1
Info: FEP BOND ACTIVE FOR ANNIHILATED PARTICLES BETWEEN LAMBDA = 1 AND LAMBDA = 1
Info: FEP BOND ACTIVE FOR EXNIHILATED PARTICLES BETWEEN LAMBDA = 0 AND LAMBDA = 0
Info: LANGEVIN DYNAMICS ACTIVE
Info: LANGEVIN TEMPERATURE   300
Info: LANGEVIN USING BBK INTEGRATOR
Info: LANGEVIN DAMPING COEFFICIENT IS 1 INVERSE PS
Info: LANGEVIN DYNAMICS APPLIED TO HYDROGENS
Info: LANGEVIN PISTON PRESSURE CONTROL ACTIVE
Info:        TARGET PRESSURE IS 1.01325 BAR
Info:     OSCILLATION PERIOD IS 50 FS
Info:             DECAY TIME IS 25 FS
Info:     PISTON TEMPERATURE IS 300 K
Info:       PRESSURE CONTROL IS GROUP-BASED
Info:    INITIAL STRAIN RATE IS -0.000149908 -0.000149908 -0.000149908
Info:       CELL FLUCTUATION IS ISOTROPIC
Info: PARTICLE MESH EWALD (PME) ACTIVE
Info: PME TOLERANCE               1e-06
Info: PME EWALD COEFFICIENT       0.348832
Info: PME INTERPOLATION ORDER     4
Info: PME GRID DIMENSIONS         32 32 36
Info: PME MAXIMUM GRID SPACING    1
Info: PME CALCULATION WILL BE PERFORMED ON GPU
Info: FULL ELECTROSTATIC EVALUATION FREQUENCY      2
Info: USING VERLET I (r-RESPA) MTS SCHEME.
Info: C1 SPLITTING OF LONG RANGE ELECTROSTATICS
Info: PLACING ATOMS IN PATCHES BY HYDROGEN GROUPS
Info: RIGID BONDS TO HYDROGEN : ALL
Info:         ERROR TOLERANCE : 1e-08
Info:          MAX ITERATIONS : 100
Info: RIGID WATER USING SETTLE ALGORITHM
Info: RANDOM NUMBER SEED     1742572852
Info: USE HYDROGEN BONDS?    NO
Info: Using AMBER format force field!
Info: AMBER PARM FILE        mobley_628086.prmtop
Info: COORDINATE PDB         mobley_628086.pdb
Info: Exclusions will be read from PARM file!
Info: SCNB (VDW SCALING)     2
Info: USING ARITHMETIC MEAN TO COMBINE L-J SIGMA PARAMETERS
Info: BINARY COORDINATES     mobley_628086_equil.coor
Info: SUMMARY OF PARAMETERS:
Info: 8 BONDS
Info: 9 ANGLES
Info:   9 HARMONIC
Info:   0 COSINE-BASED
Info: 7 DIHEDRAL
Info: 0 IMPROPER
Info: 0 CROSSTERM
Info: 0 VDW
Info: 36 VDW_PAIRS
Info: 0 NBTHOLE_PAIRS
Info: To read alchdata from file: mobley_628086.pdb
Info: To read alchflag data from column: 5
Info: STRUCTURE SUMMARY:
Info: 2910 ATOMS
Info: 2909 BONDS
Info: 19 ANGLES
Info: 24 DIHEDRALS
Info: 0 IMPROPERS
Info: 0 CROSSTERMS
Info: 2949 EXCLUSIONS
Info: 2903 RIGID BONDS
Info: ALCH: 0 ATOMS TO DISAPPEAR IN FINAL STATE
Info: ALCH: 12 ATOMS TO APPEAR IN FINAL STATE
Info: 5827 DEGREES OF FREEDOM
Info: 973 HYDROGEN GROUPS
Info: 4 ATOMS IN LARGEST HYDROGEN GROUP
Info: 973 MIGRATION GROUPS
Info: 4 ATOMS IN LARGEST MIGRATION GROUP
Info: TOTAL MASS = 17517.5 amu
Info: TOTAL CHARGE = -0.000100069 e
Info: MASS DENSITY = 0.965999 g/cm^3
Info: ATOM DENSITY = 0.0966357 atoms/A^3
Info: ADDED 0 IMPLICIT EXCLUSIONS
Info: NONBONDED TABLE R-SQUARED SPACING: 0.0625
Info: NONBONDED TABLE SIZE: 705 POINTS
Info: REMOVING COM VELOCITY 0.0883028 0.0286597 -0.0137354
Info: Use 3D box decompostion in PME FFT.
Info: Updated CUDA force table with 4096 elements.
Info: Updated CUDA LJ table with 8 x 8 elements.
Info: Found 15 unique exclusion lists needing 28 bytes
TCL: Running for 1500000 steps
ETITLE: TS BOND ANGLE DIHED IMPRP ELECT VDW BOUNDARY MISC KINETIC TOTAL TEMP POTENTIAL TOTALAVG TEMPAVG PRESSURE GPRESSURE VOLUME PRESSAVG GPRESSAVG
ENERGY: 0 0.9942 10.0883 1.7350 0.0000 -10558.6355 1435.6823 0.0000 0.0000 1690.7422 -7419.3935 292.0268 -9110.1357 -7419.3935 292.0268 46.7319 126.6013 30113.1070 46.7319 126.6013
ENERGY: 300000 2.1078 6.0554 0.6604 0.0000 -10692.1941 1496.2797 0.0000 0.0000 1713.9941 -7473.0966 296.0429 -9187.0907 -7439.0088 294.0930 540.7819 643.1960 29521.5054 43.3810 113.6415
ENERGY: 600000 2.1722 6.6593 1.1260 0.0000 -10493.2740 1449.6967 0.0000 0.0000 1738.3642 -7295.2556 300.2522 -9033.6198 -7370.1737 298.7654 626.9118 683.6549 29747.5357 113.9807 180.4916
ENERGY: 900000 1.8832 5.9867 1.1441 0.0000 -10524.7382 1413.2035 0.0000 0.0000 1713.0867 -7389.4339 295.8862 -9102.5206 -7377.5095 297.9571 -237.3544 -143.0089 30236.1371 40.1963 98.5861
ENERGY: 1200000 1.5592 3.6970 1.3107 0.0000 -10522.9933 1413.5587 0.0000 0.0000 1683.2115 -7419.6563 290.7261 -9102.8678 -7386.3707 298.3956 -196.5988 -92.0283 30351.4962 43.9509 108.8199
ENERGY: 1500000 1.4653 4.5698 0.7574 0.0000 -10650.8236 1539.0460 0.0000 0.0000 1720.6106 -7384.3746 297.1857 -9104.9852 -7396.4236 297.3954 874.5285 1043.6253 29825.9917 180.1642 247.0518
TCL: Running FEP window   2: Lambda1 0.95   Lambda2 0.8999999999999999 [dLambda -0.050000000000000044]
TCL: Setting parameter firsttimestep to 0
TCL: Setting parameter alchLambda to 0.95
Info: NONBONDED TABLE R-SQUARED SPACING: 0.0625
Info: NONBONDED TABLE SIZE: 705 POINTS
TCL: Setting parameter alchLambda2 to 0.8999999999999999
Info: NONBONDED TABLE R-SQUARED SPACING: 0.0625
Info: NONBONDED TABLE SIZE: 705 POINTS
TCL: Running for 1500000 steps
ETITLE: TS BOND ANGLE DIHED IMPRP ELECT VDW BOUNDARY MISC KINETIC TOTAL TEMP POTENTIAL TOTALAVG TEMPAVG PRESSURE GPRESSURE VOLUME PRESSAVG GPRESSAVG
ENERGY: 0 1.4653 4.5698 0.7574 0.0000 -10649.6779 1538.3093 0.0000 0.0000 1719.7472 -7384.8289 297.0366 -9104.5761 -7384.8289 297.0366 943.8666 1025.6105 29825.9917 943.8666 1025.6105
ENERGY: 300000 1.3864 5.0619 0.7052 0.0000 -10369.0602 1362.4299 0.0000 0.0000 1708.6355 -7290.8414 295.1174 -8999.4769 -7371.7248 297.1711 -258.7974 -168.2097 30269.2775 375.4400 434.5674
ENERGY: 600000 2.4887 4.0502 0.7999 0.0000 -10576.2293 1482.4193 0.0000 0.0000 1742.4053 -7344.0659 300.9501 -9086.4712 -7349.1225 299.9560 694.3075 758.6321 29767.7937 301.1255 365.4319
ENERGY: 900000 1.6041 7.4454 1.0936 0.0000 -10520.9980 1424.8413 0.0000 0.0000 1750.8934 -7335.1200 302.4162 -9086.0135 -7354.6217 298.8173 156.4330 154.9581 29914.0514 330.2306 381.5416
ENERGY: 1200000 2.1430 5.9950 1.1821 0.0000 -10478.6873 1360.8804 0.0000 0.0000 1698.2287 -7410.2581 293.3199 -9108.4868 -7355.6156 298.4163 -602.5863 -543.5289 30020.5531 261.4595 315.0854
ENERGY: 1500000 0.3130 5.2312 0.7577 0.0000 -10572.6888 1403.0073 0.0000 0.0000 1734.4697 -7428.9099 299.5795 -9163.3796 -7360.0950 298.5815 -37.5234 -61.6753 29579.6492 157.8503 204.5107
TCL: Running FEP window   3: Lambda1 0.8999999999999999 Lambda2 0.8499999999999999 [dLambda -0.050000000000000044]
TCL: Setting parameter firsttimestep to 0
TCL: Setting parameter alchLambda to 0.8999999999999999
Info: NONBONDED TABLE R-SQUARED SPACING: 0.0625
Info: NONBONDED TABLE SIZE: 705 POINTS
TCL: Setting parameter alchLambda2 to 0.8499999999999999
Info: NONBONDED TABLE R-SQUARED SPACING: 0.0625
Info: NONBONDED TABLE SIZE: 705 POINTS
TCL: Running for 1500000 steps
ETITLE: TS BOND ANGLE DIHED IMPRP ELECT VDW BOUNDARY MISC KINETIC TOTAL TEMP POTENTIAL TOTALAVG TEMPAVG PRESSURE GPRESSURE VOLUME PRESSAVG GPRESSAVG
ENERGY: 0 0.3130 5.2312 0.7577 0.0000 -10570.9349 1403.0409 0.0000 0.0000 1733.5914 -7428.0008 299.4278 -9161.5921 -7428.0008 299.4278 -146.1872 -64.4853 29579.6492 -146.1872 -64.4853
ENERGY: 300000 0.9792 6.9266 1.2005 0.0000 -10491.6379 1356.1004 0.0000 0.0000 1715.6672 -7410.7641 296.3319 -9126.4313 -7448.8057 296.4639 -486.3522 -431.0786 29644.0397 -220.5400 -175.2832
ENERGY: 600000 1.8649 5.6628 1.3589 0.0000 -10647.1224 1426.1522 0.0000 0.0000 1737.4539 -7474.6296 300.0949 -9212.0835 -7401.5177 298.0209 -689.9301 -599.8763 30386.8797 -174.5767 -111.3433
ENERGY: 900000 2.1873 5.6133 0.8420 0.0000 -10435.1300 1380.0456 0.0000 0.0000 1700.9882 -7345.4536 293.7965 -9046.4418 -7384.7680 297.9244 -497.6161 -402.3779 30468.9122 -276.6040 -199.9496
ENERGY: 1200000 2.7218 6.2242 1.2544 0.0000 -10507.6734 1384.9979 0.0000 0.0000 1681.4433 -7431.0318 290.4207 -9112.4750 -7372.0203 298.9036 -483.1945 -415.8052 30259.9474 -201.0971 -125.3926
ENERGY: 1500000 2.3595 3.4941 0.8341 0.0000 -10448.3098 1357.2074 0.0000 0.0000 1704.1097 -7380.3050 294.3357 -9084.4147 -7370.7845 298.4721 -410.4745 -308.5909 29942.0359 -198.1223 -119.4756
TCL: Running FEP window   4: Lambda1 0.8499999999999999 Lambda2 0.7999999999999998 [dLambda -0.050000000000000044]
TCL: Setting parameter firsttimestep to 0
TCL: Setting parameter alchLambda to 0.8499999999999999
Info: NONBONDED TABLE R-SQUARED SPACING: 0.0625
Info: NONBONDED TABLE SIZE: 705 POINTS
TCL: Setting parameter alchLambda2 to 0.7999999999999998
Info: NONBONDED TABLE R-SQUARED SPACING: 0.0625
Info: NONBONDED TABLE SIZE: 705 POINTS
TCL: Running for 1500000 steps
ETITLE: TS BOND ANGLE DIHED IMPRP ELECT VDW BOUNDARY MISC KINETIC TOTAL TEMP POTENTIAL TOTALAVG TEMPAVG PRESSURE GPRESSURE VOLUME PRESSAVG GPRESSAVG
ENERGY: 0 2.3595 3.4941 0.8341 0.0000 -10445.8566 1354.9468 0.0000 0.0000 1703.2462 -7380.9758 294.1865 -9084.2220 -7380.9758 294.1865 -423.3018 -334.7056 29942.0359 -423.3018 -334.7056
ENERGY: 300000 0.1672 2.3189 0.7281 0.0000 -10690.9139 1543.8376 0.0000 0.0000 1725.4656 -7418.3965 298.0243 -9143.8621 -7372.6964 298.2846 742.8181 804.6516 29879.2338 132.2810 206.5677
ENERGY: 600000 2.3868 6.3518 1.3454 0.0000 -10543.4002 1409.8338 0.0000 0.0000 1760.0942 -7363.3882 304.0054 -9123.4823 -7360.1924 299.6587 -203.0700 -165.2828 30103.8715 107.0498 180.1152
ENERGY: 900000 0.9130 4.5967 1.4110 0.0000 -10607.7237 1415.2046 0.0000 0.0000 1784.0260 -7401.5725 308.1389 -9185.5984 -7359.4304 300.4943 -363.6649 -320.1126 30136.0012 106.8922 174.6213
ENERGY: 1200000 2.8462 5.4899 0.6137 0.0000 -10599.0177 1508.0537 0.0000 0.0000 1701.7854 -7380.2289 293.9342 -9082.0142 -7359.2837 299.5498 826.2577 940.9483 29791.4418 187.3009 255.2427
ENERGY: 1500000 0.4707 3.5865 1.9107 0.0000 -10583.3232 1459.6582 0.0000 0.0000 1769.3630 -7348.3342 305.6063 -9117.6972 -7360.2011 300.0317 268.5893 303.7088 30237.7016 115.3230 178.6669
TCL: Running FEP window   5: Lambda1 0.7999999999999998 Lambda2 0.7499999999999998 [dLambda -0.050000000000000044]
TCL: Setting parameter firsttimestep to 0
TCL: Setting parameter alchLambda to 0.7999999999999998
Info: NONBONDED TABLE R-SQUARED SPACING: 0.0625
Info: NONBONDED TABLE SIZE: 705 POINTS
TCL: Setting parameter alchLambda2 to 0.7499999999999998
Info: NONBONDED TABLE R-SQUARED SPACING: 0.0625
Info: NONBONDED TABLE SIZE: 705 POINTS
TCL: Running for 1500000 steps
ETITLE: TS BOND ANGLE DIHED IMPRP ELECT VDW BOUNDARY MISC KINETIC TOTAL TEMP POTENTIAL TOTALAVG TEMPAVG PRESSURE GPRESSURE VOLUME PRESSAVG GPRESSAVG
ENERGY: 0 0.4707 3.5865 1.9107 0.0000 -10580.4209 1456.8720 0.0000 0.0000 1768.5143 -7349.0666 305.4597 -9117.5810 -7349.0666 305.4597 202.4741 273.6809 30237.7016 202.4741 273.6809
ENERGY: 300000 2.1964 4.3963 1.3000 0.0000 -10309.9060 1301.8456 0.0000 0.0000 1739.0468 -7261.1210 300.3700 -9000.1677 -7310.2217 305.8537 -768.6746 -755.4325 30306.0410 64.5725 113.1101
ENERGY: 600000 1.5589 5.4543 2.0601 0.0000 -10438.2801 1370.6894 0.0000 0.0000 1728.1872 -7330.3301 298.4944 -9058.5173 -7316.4992 303.3599 -388.3055 -259.1662 30148.2881 -65.8162 -2.4750
ENERGY: 900000 3.4504 6.9294 1.6105 0.0000 -10506.5324 1397.5081 0.0000 0.0000 1728.2018 -7368.8321 298.4969 -9097.0339 -7316.7107 303.3261 -177.3352 -164.2193 30016.0743 -41.2754 21.9637
ENERGY: 1200000 2.8173 5.1044 0.8283 0.0000 -10764.1020 1527.4817 0.0000 0.0000 1676.2803 -7551.5900 289.5290 -9227.8703 -7342.0766 301.7062 584.1529 672.6001 29507.4340 41.6774 101.5323
ENERGY: 1500000 6.8832 5.5562 1.5847 0.0000 -10534.1160 1390.9469 0.0000 0.0000 1726.3412 -7402.8039 298.1755 -9129.1451 -7345.1552 302.0189 -232.1156 -139.5257 29523.6096 30.9417 90.4043
TCL: Running FEP window   6: Lambda1 0.7499999999999998 Lambda2 0.6999999999999997 [dLambda -0.050000000000000044]
TCL: Setting parameter firsttimestep to 0
TCL: Setting parameter alchLambda to 0.7499999999999998
Info: NONBONDED TABLE R-SQUARED SPACING: 0.0625
Info: NONBONDED TABLE SIZE: 705 POINTS
TCL: Setting parameter alchLambda2 to 0.6999999999999997
Info: NONBONDED TABLE R-SQUARED SPACING: 0.0625
Info: NONBONDED TABLE SIZE: 705 POINTS
TCL: Running for 1500000 steps
ETITLE: TS BOND ANGLE DIHED IMPRP ELECT VDW BOUNDARY MISC KINETIC TOTAL TEMP POTENTIAL TOTALAVG TEMPAVG PRESSURE GPRESSURE VOLUME PRESSAVG GPRESSAVG
ENERGY: 0 6.8832 5.5562 1.5847 0.0000 -10532.6754 1390.2627 0.0000 0.0000 1725.4728 -7402.9158 298.0255 -9128.3886 -7402.9158 298.0255 -241.2053 -149.0658 29523.6096 -241.2053 -149.0658
ENERGY: 300000 0.3706 3.9339 2.2592 0.0000 -10564.3263 1494.3938 0.0000 0.0000 1697.5730 -7365.7959 293.2067 -9063.3689 -7361.5768 298.9021 443.1826 483.6501 30350.2023 51.4911 101.2006
ENERGY: 600000 3.8452 4.5395 1.1502 0.0000 -10397.0175 1307.6092 0.0000 0.0000 1694.6184 -7385.2550 292.6963 -9079.8734 -7352.4026 298.4669 -791.0029 -740.0123 29785.8511 16.0995 75.7983
ENERGY: 900000 1.5281 6.8100 1.0916 0.0000 -10443.3466 1387.7398 0.0000 0.0000 1699.7728 -7346.4044 293.5866 -9046.1772 -7347.7695 298.2189 -46.0925 -16.1580 29921.0018 5.1812 67.2169
ENERGY: 1200000 0.7323 5.8773 1.9470 0.0000 -10619.3028 1465.6954 0.0000 0.0000 1723.8627 -7421.1881 297.7474 -9145.0508 -7356.2851 298.5071 119.7922 126.6907 30004.5860 -62.4158 -2.5469
ENERGY: 1500000 0.5120 5.6389 0.8071 0.0000 -10470.7195 1375.0137 0.0000 0.0000 1755.6484 -7333.0994 303.2375 -9088.7478 -7361.9089 297.9663 -354.4389 -271.3673 30260.7082 -98.4969 -35.0916
TCL: Running FEP window   7: Lambda1 0.6999999999999997 Lambda2 0.6499999999999997 [dLambda -0.050000000000000044]
TCL: Setting parameter firsttimestep to 0
TCL: Setting parameter alchLambda to 0.6999999999999997
Info: NONBONDED TABLE R-SQUARED SPACING: 0.0625
Info: NONBONDED TABLE SIZE: 705 POINTS
TCL: Setting parameter alchLambda2 to 0.6499999999999997
Info: NONBONDED TABLE R-SQUARED SPACING: 0.0625
Info: NONBONDED TABLE SIZE: 705 POINTS
TCL: Running for 1500000 steps
ETITLE: TS BOND ANGLE DIHED IMPRP ELECT VDW BOUNDARY MISC KINETIC TOTAL TEMP POTENTIAL TOTALAVG TEMPAVG PRESSURE GPRESSURE VOLUME PRESSAVG GPRESSAVG
ENERGY: 0 0.5120 5.6389 0.8071 0.0000 -10468.9784 1374.2088 0.0000 0.0000 1754.7601 -7333.0515 303.0841 -9087.8117 -7333.0515 303.0841 -353.4718 -284.4169 30260.7082 -353.4718 -284.4169
ENERGY: 300000 2.4087 4.9119 1.0219 0.0000 -10576.3295 1492.7129 0.0000 0.0000 1746.0800 -7329.1941 301.5848 -9075.2741 -7340.4044 300.7203 527.1720 598.6297 30037.4307 198.2018 263.4286
ENERGY: 600000 3.5041 3.0601 1.1081 0.0000 -10523.7370 1381.8782 0.0000 0.0000 1759.7181 -7374.4684 303.9404 -9134.1865 -7363.9641 301.1025 -328.9844 -288.6606 29732.2666 -17.7478 33.9875
ENERGY: 900000 1.0618 6.1671 1.3085 0.0000 -10422.4323 1410.4599 0.0000 0.0000 1771.8799 -7231.5550 306.0410 -9003.4350 -7356.1232 300.8154 128.8182 206.5234 30251.9020 -132.0614 -82.3932
ENERGY: 1200000 1.9234 5.2385 0.8494 0.0000 -10710.4822 1561.4056 0.0000 0.0000 1791.9672 -7349.0981 309.5105 -9141.0653 -7343.2810 301.9180 1036.4909 1085.6511 29800.0812 -20.9653 28.4156
ENERGY: 1500000 2.5373 3.7120 0.6661 0.0000 -10526.6597 1420.6518 0.0000 0.0000 1795.7528 -7303.3397 310.1644 -9099.0925 -7332.6484 303.2302 38.5022 182.5121 29912.4093 -32.5959 29.5050
TCL: Running FEP window   8: Lambda1 0.6499999999999997 Lambda2 0.5999999999999996 [dLambda -0.050000000000000044]
TCL: Setting parameter firsttimestep to 0
TCL: Setting parameter alchLambda to 0.6499999999999997
Info: NONBONDED TABLE R-SQUARED SPACING: 0.0625
Info: NONBONDED TABLE SIZE: 705 POINTS
TCL: Setting parameter alchLambda2 to 0.5999999999999996
Info: NONBONDED TABLE R-SQUARED SPACING: 0.0625
Info: NONBONDED TABLE SIZE: 705 POINTS
TCL: Running for 1500000 steps
ETITLE: TS BOND ANGLE DIHED IMPRP ELECT VDW BOUNDARY MISC KINETIC TOTAL TEMP POTENTIAL TOTALAVG TEMPAVG PRESSURE GPRESSURE VOLUME PRESSAVG GPRESSAVG
ENERGY: 0 2.5373 3.7120 0.6661 0.0000 -10526.3663 1420.6986 0.0000 0.0000 1794.9169 -7303.8353 310.0200 -9098.7522 -7303.8353 310.0200 73.4106 175.2389 29912.4093 73.4106 175.2389
ENERGY: 300000 0.6675 5.3608 1.0629 0.0000 -10606.2100 1506.6564 0.0000 0.0000 1658.8438 -7433.6185 286.5173 -9092.4623 -7336.8525 298.4098 882.2207 909.0564 29322.2432 368.9585 438.1393
ENERGY: 600000 3.2374 4.7701 1.2348 0.0000 -10502.5763 1383.9733 0.0000 0.0000 1699.8223 -7409.5385 293.5952 -9109.3608 -7352.5046 298.2389 -289.3627 -312.7311 30028.3906 280.1396 311.1320
ENERGY: 900000 1.3697 5.2374 0.8103 0.0000 -10469.4902 1380.7288 0.0000 0.0000 1762.0819 -7319.2621 304.3487 -9081.3440 -7359.3918 298.3791 -377.7495 -340.6716 30414.9424 121.9632 164.9295
ENERGY: 1200000 1.0294 4.5813 0.8816 0.0000 -10572.1884 1403.4910 0.0000 0.0000 1740.0281 -7422.1770 300.5395 -9162.2050 -7363.5411 298.9512 -275.0922 -167.6928 29556.6916 57.1733 105.7277
ENERGY: 1500000 1.6268 4.4829 1.2264 0.0000 -10595.3965 1444.6421 0.0000 0.0000 1751.9072 -7391.5111 302.5913 -9143.4183 -7365.6423 299.0444 178.7538 281.2523 29512.3483 43.8289 97.5262
TCL: Running FEP window   9: Lambda1 0.5999999999999996 Lambda2 0.5499999999999996 [dLambda -0.050000000000000044]
TCL: Setting parameter firsttimestep to 0
TCL: Setting parameter alchLambda to 0.5999999999999996
Info: NONBONDED TABLE R-SQUARED SPACING: 0.0625
Info: NONBONDED TABLE SIZE: 705 POINTS
TCL: Setting parameter alchLambda2 to 0.5499999999999996
Info: NONBONDED TABLE R-SQUARED SPACING: 0.0625
Info: NONBONDED TABLE SIZE: 705 POINTS
TCL: Running for 1500000 steps
ETITLE: TS BOND ANGLE DIHED IMPRP ELECT VDW BOUNDARY MISC KINETIC TOTAL TEMP POTENTIAL TOTALAVG TEMPAVG PRESSURE GPRESSURE VOLUME PRESSAVG GPRESSAVG
ENERGY: 0 1.6268 4.4829 1.2264 0.0000 -10594.8956 1444.8428 0.0000 0.0000 1751.0372 -7391.6795 302.4411 -9142.7167 -7391.6795 302.4411 192.8078 275.7140 29512.3483 192.8078 275.7140
ENERGY: 300000 0.7125 7.1709 1.4301 0.0000 -10619.0039 1511.9307 0.0000 0.0000 1697.3391 -7400.4205 293.1663 -9097.7597 -7364.0076 299.2979 637.1840 683.0459 30070.1161 -4.8528 34.9709
ENERGY: 600000 4.2647 3.6170 2.9000 0.0000 -10547.8725 1422.8747 0.0000 0.0000 1683.7880 -7430.4280 290.8257 -9114.2160 -7382.7598 298.1704 -42.0699 40.0931 29722.5732 39.4956 88.9476
ENERGY: 900000 6.1804 3.1842 2.3619 0.0000 -10534.3689 1401.9942 0.0000 0.0000 1783.2145 -7337.4337 307.9988 -9120.6482 -7371.3693 299.8204 -285.3985 -193.3326 30142.2705 17.3033 64.7934
ENERGY: 1200000 1.2315 4.7858 1.1162 0.0000 -10550.7008 1467.2415 0.0000 0.0000 1787.3642 -7288.9615 308.7155 -9076.3257 -7355.7597 301.6673 475.7235 612.8354 29746.9732 81.7233 140.3228
ENERGY: 1500000 3.3658 6.7372 1.6454 0.0000 -10497.6058 1398.4476 0.0000 0.0000 1716.6400 -7370.7698 296.4999 -9087.4098 -7361.3542 300.6226 -81.5954 2.7749 29697.6492 32.1303 92.1953
TCL: Running FEP window  10: Lambda1 0.5499999999999996 Lambda2 0.4999999999999996 [dLambda -0.04999999999999999]
TCL: Setting parameter firsttimestep to 0
TCL: Setting parameter alchLambda to 0.5499999999999996
Info: NONBONDED TABLE R-SQUARED SPACING: 0.0625
Info: NONBONDED TABLE SIZE: 705 POINTS
TCL: Setting parameter alchLambda2 to 0.4999999999999996
Info: NONBONDED TABLE R-SQUARED SPACING: 0.0625
Info: NONBONDED TABLE SIZE: 705 POINTS
TCL: Running for 1500000 steps
ETITLE: TS BOND ANGLE DIHED IMPRP ELECT VDW BOUNDARY MISC KINETIC TOTAL TEMP POTENTIAL TOTALAVG TEMPAVG PRESSURE GPRESSURE VOLUME PRESSAVG GPRESSAVG
ENERGY: 0 3.3658 6.7372 1.6454 0.0000 -10496.9230 1398.3914 0.0000 0.0000 1715.7936 -7370.9896 296.3537 -9086.7832 -7370.9896 296.3537 -92.0155 -3.6219 29697.6492 -92.0155 -3.6219
ENERGY: 300000 0.7995 9.9641 1.2669 0.0000 -10552.8937 1408.8866 0.0000 0.0000 1716.0067 -7415.9699 296.3905 -9131.9766 -7394.5462 299.4137 -260.1598 -170.1050 30123.5578 124.4799 206.4486
ENERGY: 600000 1.5483 3.1668 0.7680 0.0000 -10474.5632 1439.1501 0.0000 0.0000 1739.2277 -7290.7023 300.4013 -9029.9300 -7364.4647 299.8286 361.1904 445.7980 29880.0030 218.2554 292.6670
ENERGY: 900000 2.0885 4.9538 0.6750 0.0000 -10484.0186 1404.0023 0.0000 0.0000 1757.7108 -7314.5882 303.5937 -9072.2990 -7375.1434 299.4227 42.1080 84.0180 29681.9852 212.7953 287.5431
ENERGY: 1200000 3.5479 5.7049 2.3639 0.0000 -10512.1512 1444.0439 0.0000 0.0000 1731.5819 -7324.9089 299.0807 -9056.4907 -7356.0951 300.4705 226.2222 248.0443 29971.3728 195.3875 265.2404
ENERGY: 1500000 3.6757 6.2802 1.2115 0.0000 -10440.1491 1411.9569 0.0000 0.0000 1686.5848 -7330.4400 291.3088 -9017.0248 -7348.9056 299.5812 159.3751 167.4299 29940.7335 72.9180 139.8445
TCL: Running FEP window  11: Lambda1 0.4999999999999996 Lambda2 0.4499999999999996 [dLambda -0.04999999999999999]
TCL: Setting parameter firsttimestep to 0
TCL: Setting parameter alchLambda to 0.4999999999999996
Info: NONBONDED TABLE R-SQUARED SPACING: 0.0625
Info: NONBONDED TABLE SIZE: 705 POINTS
TCL: Setting parameter alchLambda2 to 0.4499999999999996
Info: NONBONDED TABLE R-SQUARED SPACING: 0.0625
Info: NONBONDED TABLE SIZE: 705 POINTS
TCL: Running for 1500000 steps
ETITLE: TS BOND ANGLE DIHED IMPRP ELECT VDW BOUNDARY MISC KINETIC TOTAL TEMP POTENTIAL TOTALAVG TEMPAVG PRESSURE GPRESSURE VOLUME PRESSAVG GPRESSAVG
ENERGY: 0 3.6757 6.2801 1.2115 0.0000 -10440.0630 1412.1220 0.0000 0.0000 1685.7500 -7331.0237 291.1646 -9016.7737 -7331.0237 291.1646 97.3968 166.8350 29940.7335 97.3968 166.8350
ENERGY: 300000 1.6817 9.1405 1.8500 0.0000 -10438.6344 1410.8369 0.0000 0.0000 1753.1386 -7261.9867 302.8040 -9015.1253 -7311.0881 300.9579 58.5902 124.1756 30068.4680 -40.1083 35.8094
ENERGY: 600000 2.5460 3.4860 1.5890 0.0000 -10540.9422 1516.9722 0.0000 0.0000 1743.8436 -7272.5054 301.1986 -9016.3490 -7319.3443 299.0629 1211.7352 1298.1983 29536.9395 133.1165 203.2798
ENERGY: 900000 4.6124 6.5451 1.9747 0.0000 -10400.9312 1370.2251 0.0000 0.0000 1705.4713 -7312.1027 294.5709 -9017.5740 -7314.1188 299.7400 -510.5538 -408.0893 30309.0232 -59.5012 10.5277
ENERGY: 1200000 2.1540 4.0132 1.0302 0.0000 -10642.8439 1447.4497 0.0000 0.0000 1681.2196 -7506.9772 290.3821 -9188.1968 -7335.5392 298.9580 -102.3919 46.0868 29606.8476 11.6410 94.0910
ENERGY: 1500000 1.6750 7.6253 2.5114 0.0000 -10591.9629 1441.6273 0.0000 0.0000 1684.3833 -7454.1406 290.9285 -9138.5238 -7348.5249 297.8778 61.5012 84.2557 29827.2445 7.1350 83.9427
TCL: Running FEP window  12: Lambda1 0.4499999999999996 Lambda2 0.39999999999999963 [dLambda -0.04999999999999999]
TCL: Setting parameter firsttimestep to 0
TCL: Setting parameter alchLambda to 0.4499999999999996
Info: NONBONDED TABLE R-SQUARED SPACING: 0.0625
Info: NONBONDED TABLE SIZE: 705 POINTS
TCL: Setting parameter alchLambda2 to 0.39999999999999963
Info: NONBONDED TABLE R-SQUARED SPACING: 0.0625
Info: NONBONDED TABLE SIZE: 705 POINTS
TCL: Running for 1500000 steps
ETITLE: TS BOND ANGLE DIHED IMPRP ELECT VDW BOUNDARY MISC KINETIC TOTAL TEMP POTENTIAL TOTALAVG TEMPAVG PRESSURE GPRESSURE VOLUME PRESSAVG GPRESSAVG
ENERGY: 0 1.6750 7.6253 2.5114 0.0000 -10591.9626 1441.4188 0.0000 0.0000 1683.5339 -7455.1981 290.7818 -9138.7320 -7455.1981 290.7818 -0.1046 77.6895 29827.2445 -0.1046 77.6895
ENERGY: 300000 2.2066 4.4069 1.6868 0.0000 -10577.4682 1447.2574 0.0000 0.0000 1725.0024 -7396.9080 297.9443 -9121.9104 -7396.7029 297.2120 180.4389 236.6197 29835.6636 -18.8628 62.7511
ENERGY: 600000 0.5378 5.1112 0.9073 0.0000 -10589.4275 1479.3400 0.0000 0.0000 1707.3466 -7396.1847 294.8948 -9103.5313 -7405.1830 296.1625 176.2714 281.6957 30077.8236 -77.4182 4.0348
ENERGY: 900000 2.1744 7.9705 1.8148 0.0000 -10396.1368 1349.1339 0.0000 0.0000 1713.7747 -7321.2686 296.0050 -9035.0432 -7377.3614 297.6592 -550.0192 -533.2520 30176.0379 -256.5545 -184.9715
ENERGY: 1200000 2.6049 2.9605 0.9931 0.0000 -10446.4289 1400.6258 0.0000 0.0000 1743.5441 -7295.7004 301.1468 -9039.2445 -7371.6492 298.8526 -25.0075 30.1064 29883.6404 -195.3969 -131.3095
ENERGY: 1500000 2.2281 6.4459 2.1390 0.0000 -10547.1114 1450.5240 0.0000 0.0000 1739.2747 -7346.4996 300.4094 -9085.7743 -7369.4026 298.8831 -44.7588 -5.0475 30321.8350 -139.6660 -76.0128
TCL: Running FEP window  13: Lambda1 0.39999999999999963 Lambda2 0.34999999999999964 [dLambda -0.04999999999999999]
TCL: Setting parameter firsttimestep to 0
TCL: Setting parameter alchLambda to 0.39999999999999963
Info: NONBONDED TABLE R-SQUARED SPACING: 0.0625
Info: NONBONDED TABLE SIZE: 705 POINTS
TCL: Setting parameter alchLambda2 to 0.34999999999999964
Info: NONBONDED TABLE R-SQUARED SPACING: 0.0625
Info: NONBONDED TABLE SIZE: 705 POINTS
TCL: Running for 1500000 steps
ETITLE: TS BOND ANGLE DIHED IMPRP ELECT VDW BOUNDARY MISC KINETIC TOTAL TEMP POTENTIAL TOTALAVG TEMPAVG PRESSURE GPRESSURE VOLUME PRESSAVG GPRESSAVG
ENERGY: 0 2.2281 6.4459 2.1390 0.0000 -10547.1085 1451.0072 0.0000 0.0000 1738.4282 -7346.8600 300.2632 -9085.2882 -7346.8600 300.2632 -82.9058 -5.4415 30321.8350 -82.9058 -5.4415
ENERGY: 300000 4.1301 5.6308 1.0091 0.0000 -10492.1719 1417.9678 0.0000 0.0000 1842.0803 -7221.3538 318.1661 -9063.4340 -7312.7438 303.9704 96.4033 155.7334 29808.9185 -320.8340 -245.3617
ENERGY: 600000 0.4033 5.8743 1.2158 0.0000 -10376.2960 1290.1475 0.0000 0.0000 1720.2455 -7358.4096 297.1227 -9078.6551 -7335.6516 302.7942 -927.5280 -763.6851 29655.9313 -301.6341 -215.4849
ENERGY: 900000 2.5833 4.1752 1.7665 0.0000 -10460.0657 1396.8325 0.0000 0.0000 1697.2506 -7357.4576 293.1510 -9054.7082 -7356.7639 298.8464 -144.9312 -51.4843 29959.7851 -181.7856 -92.7946
ENERGY: 1200000 3.9169 8.2860 1.4835 0.0000 -10552.4240 1436.6032 0.0000 0.0000 1798.8435 -7303.2909 310.6982 -9102.1344 -7355.6806 299.6557 -95.4664 -59.9708 30042.0660 -127.2840 -44.2784
ENERGY: 1500000 1.2809 4.5193 2.1823 0.0000 -10646.1723 1553.1406 0.0000 0.0000 1689.7430 -7395.3062 291.8542 -9085.0491 -7356.3608 299.4072 1004.6013 1018.1925 29938.7316 129.9262 201.1186
TCL: Running FEP window  14: Lambda1 0.34999999999999964 Lambda2 0.29999999999999966 [dLambda -0.04999999999999999]
TCL: Setting parameter firsttimestep to 0
TCL: Setting parameter alchLambda to 0.34999999999999964
Info: NONBONDED TABLE R-SQUARED SPACING: 0.0625
Info: NONBONDED TABLE SIZE: 705 POINTS
TCL: Setting parameter alchLambda2 to 0.29999999999999966
Info: NONBONDED TABLE R-SQUARED SPACING: 0.0625
Info: NONBONDED TABLE SIZE: 705 POINTS
TCL: Running for 1500000 steps
ETITLE: TS BOND ANGLE DIHED IMPRP ELECT VDW BOUNDARY MISC KINETIC TOTAL TEMP POTENTIAL TOTALAVG TEMPAVG PRESSURE GPRESSURE VOLUME PRESSAVG GPRESSAVG
ENERGY: 0 1.2809 4.5193 2.1823 0.0000 -10646.1719 1553.0446 0.0000 0.0000 1688.8597 -7396.2851 291.7017 -9085.1448 -7396.2851 291.7017 929.7925 1011.9413 29938.7316 929.7925 1011.9413
ENERGY: 300000 4.6708 7.2303 1.2608 0.0000 -10540.1313 1452.8772 0.0000 0.0000 1722.7413 -7351.3509 297.5538 -9074.0922 -7303.6899 302.7644 448.6083 441.7294 29640.2117 301.0811 336.9511
ENERGY: 600000 0.3851 5.1512 0.8648 0.0000 -10593.3131 1394.3281 0.0000 0.0000 1744.2349 -7448.3490 301.2662 -9192.5839 -7333.9895 302.0025 -476.6175 -457.2842 29653.8710 11.8613 47.4019
ENERGY: 900000 3.3536 6.1647 1.0801 0.0000 -10486.7490 1383.8044 0.0000 0.0000 1760.7411 -7331.6051 304.1171 -9092.3462 -7335.8922 301.6925 -410.3498 -354.3654 30133.4905 -126.7553 -68.9147
ENERGY: 1200000 1.0575 4.5728 0.9974 0.0000 -10504.7783 1426.2860 0.0000 0.0000 1677.6101 -7394.2545 289.7586 -9071.8646 -7342.0703 300.3544 -32.0035 -23.4872 30149.1086 -48.0890 4.2695
ENERGY: 1500000 2.8221 9.1439 1.8759 0.0000 -10639.1985 1438.3621 0.0000 0.0000 1692.7839 -7494.2105 292.3795 -9186.9944 -7362.1835 299.8946 -375.1486 -283.3478 29751.6413 -1.9289 60.0750
TCL: Running FEP window  15: Lambda1 0.29999999999999966 Lambda2 0.24999999999999967 [dLambda -0.04999999999999999]
TCL: Setting parameter firsttimestep to 0
TCL: Setting parameter alchLambda to 0.29999999999999966
Info: NONBONDED TABLE R-SQUARED SPACING: 0.0625
Info: NONBONDED TABLE SIZE: 705 POINTS
TCL: Setting parameter alchLambda2 to 0.24999999999999967
Info: NONBONDED TABLE R-SQUARED SPACING: 0.0625
Info: NONBONDED TABLE SIZE: 705 POINTS
TCL: Running for 1500000 steps
ETITLE: TS BOND ANGLE DIHED IMPRP ELECT VDW BOUNDARY MISC KINETIC TOTAL TEMP POTENTIAL TOTALAVG TEMPAVG PRESSURE GPRESSURE VOLUME PRESSAVG GPRESSAVG
ENERGY: 0 2.8221 9.1439 1.8759 0.0000 -10639.1971 1438.4304 0.0000 0.0000 1691.9089 -7495.0159 292.2283 -9186.9248 -7495.0159 292.2283 -385.2056 -285.6766 29751.6413 -385.2056 -285.6766
ENERGY: 300000 1.4113 8.6037 1.3047 0.0000 -10398.4281 1408.0413 0.0000 0.0000 1765.5215 -7213.5457 304.9428 -8979.0672 -7402.2900 296.7799 444.0907 453.8523 29950.0726 104.9281 165.7071
ENERGY: 600000 1.5523 4.1091 1.3401 0.0000 -10590.2057 1500.7118 0.0000 0.0000 1740.9811 -7341.5112 300.7042 -9082.4923 -7373.7004 297.4352 460.0527 564.0659 30099.2726 88.9198 154.2537
ENERGY: 900000 3.3359 6.1086 1.2096 0.0000 -10552.4342 1428.2752 0.0000 0.0000 1786.4705 -7327.0345 308.5611 -9113.5050 -7355.5180 299.6009 37.1906 105.6343 29752.8503 89.0060 151.8058
ENERGY: 1200000 3.1721 3.6581 0.9209 0.0000 -10530.5442 1420.9653 0.0000 0.0000 1724.8567 -7376.9710 297.9191 -9101.8277 -7353.9545 300.5019 59.5045 123.4979 29544.9578 27.9591 90.2889
ENERGY: 1500000 1.0159 5.0993 1.6542 0.0000 -10473.4672 1458.7420 0.0000 0.0000 1799.2660 -7207.6899 310.7712 -9006.9559 -7341.8662 301.9599 601.9761 593.3346 29831.3006 47.1382 102.5040
TCL: Running FEP window  16: Lambda1 0.24999999999999967 Lambda2 0.19999999999999968 [dLambda -0.04999999999999999]
TCL: Setting parameter firsttimestep to 0
TCL: Setting parameter alchLambda to 0.24999999999999967
Info: NONBONDED TABLE R-SQUARED SPACING: 0.0625
Info: NONBONDED TABLE SIZE: 705 POINTS
TCL: Setting parameter alchLambda2 to 0.19999999999999968
Info: NONBONDED TABLE R-SQUARED SPACING: 0.0625
Info: NONBONDED TABLE SIZE: 705 POINTS
TCL: Running for 1500000 steps
ETITLE: TS BOND ANGLE DIHED IMPRP ELECT VDW BOUNDARY MISC KINETIC TOTAL TEMP POTENTIAL TOTALAVG TEMPAVG PRESSURE GPRESSURE VOLUME PRESSAVG GPRESSAVG
ENERGY: 0 1.0159 5.0993 1.6542 0.0000 -10473.4667 1458.9741 0.0000 0.0000 1798.3630 -7208.3603 310.6152 -9006.7233 -7208.3603 310.6152 518.5315 591.6287 29831.3006 518.5315 591.6287
ENERGY: 300000 4.6574 6.2903 1.1875 0.0000 -10466.7490 1368.5777 0.0000 0.0000 1778.4861 -7307.5501 307.1821 -9086.0362 -7330.6980 302.2919 -328.5870 -229.2339 29393.7762 107.9128 185.2484
ENERGY: 600000 3.1187 4.0717 0.9507 0.0000 -10601.8909 1498.0535 0.0000 0.0000 1765.3426 -7330.3537 304.9119 -9095.6963 -7346.3597 302.5704 688.8086 682.3125 29642.2664 97.0975 163.6902
ENERGY: 900000 3.7147 4.3999 0.6755 0.0000 -10583.9004 1463.0558 0.0000 0.0000 1687.5584 -7424.4962 291.4769 -9112.0546 -7367.3172 300.5948 301.9021 348.0686 29800.5763 62.2164 125.7204
ENERGY: 1200000 0.2498 6.8383 1.8834 0.0000 -10561.1119 1441.0181 0.0000 0.0000 1740.5672 -7370.5551 300.6327 -9111.1223 -7360.5359 301.3304 60.5736 166.8550 29862.3652 -71.7614 -9.2548
ENERGY: 1500000 3.4973 7.2480 1.3138 0.0000 -10569.8405 1416.4619 0.0000 0.0000 1744.9490 -7396.3704 301.3895 -9141.3194 -7355.9064 301.6814 -329.7671 -251.4777 30215.8097 -42.5706 22.2351
TCL: Running FEP window  17: Lambda1 0.19999999999999968 Lambda2 0.1499999999999997 [dLambda -0.04999999999999999]
TCL: Setting parameter firsttimestep to 0
TCL: Setting parameter alchLambda to 0.19999999999999968
Info: NONBONDED TABLE R-SQUARED SPACING: 0.0625
Info: NONBONDED TABLE SIZE: 705 POINTS
TCL: Setting parameter alchLambda2 to 0.1499999999999997
Info: NONBONDED TABLE R-SQUARED SPACING: 0.0625
Info: NONBONDED TABLE SIZE: 705 POINTS
TCL: Running for 1500000 steps
ETITLE: TS BOND ANGLE DIHED IMPRP ELECT VDW BOUNDARY MISC KINETIC TOTAL TEMP POTENTIAL TOTALAVG TEMPAVG PRESSURE GPRESSURE VOLUME PRESSAVG GPRESSAVG
ENERGY: 0 3.4973 7.2480 1.3138 0.0000 -10569.8413 1415.1437 0.0000 0.0000 1744.1000 -7398.5384 301.2428 -9142.6384 -7398.5384 301.2428 -341.2789 -258.5151 30215.8097 -341.2789 -258.5151
ENERGY: 300000 2.8840 7.5779 1.1689 0.0000 -10470.0971 1386.7163 0.0000 0.0000 1753.6693 -7318.0806 302.8957 -9071.7499 -7355.7344 299.1767 -277.1620 -194.9893 30009.6662 -259.2149 -172.9706
ENERGY: 600000 0.2778 6.8824 1.2510 0.0000 -10426.2535 1353.5950 0.0000 0.0000 1743.2282 -7321.0191 301.0923 -9064.2472 -7340.2628 301.3423 -604.8237 -513.7778 30150.2174 -302.0913 -228.5113
ENERGY: 900000 1.2211 5.3981 2.0972 0.0000 -10489.9322 1441.8708 0.0000 0.0000 1771.5366 -7267.8084 305.9817 -9039.3450 -7352.9846 300.9979 279.2485 312.5686 30144.6610 -245.5468 -169.2742
ENERGY: 1200000 1.1729 5.9279 1.4091 0.0000 -10538.1703 1455.5254 0.0000 0.0000 1737.2520 -7336.8830 300.0601 -9074.1350 -7352.6491 300.7941 207.4096 274.0512 29999.6174 -182.8910 -107.0596
ENERGY: 1500000 2.8218 4.3447 0.7936 0.0000 -10627.9036 1466.4655 0.0000 0.0000 1725.4329 -7428.0451 298.0186 -9153.4780 -7351.1019 301.2036 181.6996 279.1516 29489.1682 -110.0555 -30.3150
TCL: Running FEP window  18: Lambda1 0.1499999999999997 Lambda2 0.09999999999999969 [dLambda -0.05 ]
TCL: Setting parameter firsttimestep to 0
TCL: Setting parameter alchLambda to 0.1499999999999997
Info: NONBONDED TABLE R-SQUARED SPACING: 0.0625
Info: NONBONDED TABLE SIZE: 705 POINTS
TCL: Setting parameter alchLambda2 to 0.09999999999999969
Info: NONBONDED TABLE R-SQUARED SPACING: 0.0625
Info: NONBONDED TABLE SIZE: 705 POINTS
TCL: Running for 1500000 steps
ETITLE: TS BOND ANGLE DIHED IMPRP ELECT VDW BOUNDARY MISC KINETIC TOTAL TEMP POTENTIAL TOTALAVG TEMPAVG PRESSURE GPRESSURE VOLUME PRESSAVG GPRESSAVG
ENERGY: 0 2.8218 4.3447 0.7936 0.0000 -10627.9027 1466.0718 0.0000 0.0000 1724.5737 -7429.2970 297.8703 -9153.8707 -7429.2970 297.8703 188.3595 275.7157 29489.1682 188.3595 275.7157
ENERGY: 300000 3.2155 6.4211 1.3985 0.0000 -10408.1547 1409.5785 0.0000 0.0000 1764.0136 -7223.5275 304.6823 -8987.5411 -7330.8363 298.6979 12.9717 101.9359 30249.2337 43.4629 105.5339
ENERGY: 600000 2.5623 6.0168 1.2460 0.0000 -10574.9571 1488.5697 0.0000 0.0000 1746.7360 -7329.8263 301.6981 -9076.5623 -7321.9475 299.9318 357.0399 501.5694 30013.6640 78.3311 150.4108
ENERGY: 900000 1.1910 3.6410 0.9025 0.0000 -10590.9100 1516.7256 0.0000 0.0000 1744.7803 -7323.6696 301.3604 -9068.4499 -7327.3608 300.5603 955.1040 1002.3403 29393.7076 161.2317 233.4318
ENERGY: 1200000 0.9410 4.9358 2.9064 0.0000 -10549.8194 1428.9460 0.0000 0.0000 1730.7702 -7381.3201 298.9405 -9112.0903 -7329.6082 299.8610 189.6586 260.8349 29292.4435 185.1247 255.9792
ENERGY: 1500000 0.9575 6.4383 1.7414 0.0000 -10451.3680 1433.5460 0.0000 0.0000 1695.6855 -7312.9992 292.8806 -9008.6848 -7327.9653 300.0674 496.9293 499.4237 29612.9522 246.2360 307.9528
TCL: Running FEP window  19: Lambda1 0.09999999999999969 Lambda2 0.049999999999999684 [dLambda -0.05 ]
TCL: Setting parameter firsttimestep to 0
TCL: Setting parameter alchLambda to 0.09999999999999969
Info: NONBONDED TABLE R-SQUARED SPACING: 0.0625
Info: NONBONDED TABLE SIZE: 705 POINTS
TCL: Setting parameter alchLambda2 to 0.049999999999999684
Info: NONBONDED TABLE R-SQUARED SPACING: 0.0625
Info: NONBONDED TABLE SIZE: 705 POINTS
TCL: Running for 1500000 steps
ETITLE: TS BOND ANGLE DIHED IMPRP ELECT VDW BOUNDARY MISC KINETIC TOTAL TEMP POTENTIAL TOTALAVG TEMPAVG PRESSURE GPRESSURE VOLUME PRESSAVG GPRESSAVG
ENERGY: 0 0.9575 6.4383 1.7414 0.0000 -10451.3682 1433.1895 0.0000 0.0000 1694.8189 -7314.2226 292.7310 -9009.0415 -7314.2226 292.7310 419.3538 495.5040 29612.9522 419.3538 495.5040
ENERGY: 300000 3.1472 5.5077 1.3683 0.0000 -10555.6892 1499.9810 0.0000 0.0000 1797.2290 -7248.4559 310.4193 -9045.6849 -7308.0483 302.7105 723.3021 754.7786 30051.5537 537.1534 578.2170
ENERGY: 600000 0.7878 5.2286 0.9583 0.0000 -10525.9947 1398.0064 0.0000 0.0000 1783.3031 -7337.7106 308.0140 -9121.0136 -7310.2966 303.0477 -403.7306 -334.7607 29948.4658 169.2616 221.3843
ENERGY: 900000 3.8621 4.1619 1.0181 0.0000 -10484.2879 1400.0356 0.0000 0.0000 1688.7041 -7386.5062 291.6748 -9075.2103 -7341.6106 301.5959 101.7989 122.3177 29568.0846 172.2391 217.5896
ENERGY: 1200000 4.0536 6.4282 0.7590 0.0000 -10709.2448 1508.6379 0.0000 0.0000 1756.2297 -7433.1365 303.3379 -9189.3662 -7339.8710 301.7949 711.0354 764.6032 29322.1570 111.5486 160.1208
ENERGY: 1500000 0.8146 3.7186 1.8343 0.0000 -10527.1602 1413.5611 0.0000 0.0000 1706.6637 -7400.5680 294.7768 -9107.2317 -7350.3444 300.6516 -233.9558 -154.2197 29876.4562 95.1527 145.9210
TCL: Running FEP window  20: Lambda1 0.049999999999999684 Lambda2 0.0    [dLambda -0.049999999999999684]
TCL: Setting parameter firsttimestep to 0
TCL: Setting parameter alchLambda to 0.049999999999999684
Info: NONBONDED TABLE R-SQUARED SPACING: 0.0625
Info: NONBONDED TABLE SIZE: 705 POINTS
TCL: Setting parameter alchLambda2 to 0.0
Info: NONBONDED TABLE R-SQUARED SPACING: 0.0625
Info: NONBONDED TABLE SIZE: 705 POINTS
TCL: Running for 1500000 steps
ETITLE: TS BOND ANGLE DIHED IMPRP ELECT VDW BOUNDARY MISC KINETIC TOTAL TEMP POTENTIAL TOTALAVG TEMPAVG PRESSURE GPRESSURE VOLUME PRESSAVG GPRESSAVG
ENERGY: 0 0.8146 3.7186 1.8343 0.0000 -10527.1606 1413.0447 0.0000 0.0000 1705.7943 -7401.9541 294.6266 -9107.7484 -7401.9541 294.6266 -243.8254 -158.3989 29876.4562 -243.8254 -158.3989
ENERGY: 300000 3.4628 6.1680 0.7247 0.0000 -10574.8585 1448.8003 0.0000 0.0000 1723.4891 -7392.2137 297.6829 -9115.7028 -7357.6087 300.6696 -148.6055 -23.4595 30097.1102 -228.0851 -172.7173
ENERGY: 600000 2.8186 4.0403 0.9730 0.0000 -10554.2756 1451.1574 0.0000 0.0000 1749.9751 -7345.3114 302.2576 -9095.2864 -7354.8265 300.1915 26.7551 134.8056 30041.5786 -3.8345 65.0007
ENERGY: 900000 2.6116 4.2820 1.4643 0.0000 -10542.1001 1430.8363 0.0000 0.0000 1720.6015 -7382.3045 297.1842 -9102.9060 -7346.6619 301.3132 172.2701 245.5737 29637.9641 -31.0663 21.0714
ENERGY: 1200000 2.9808 9.5722 1.4577 0.0000 -10550.7851 1415.5697 0.0000 0.0000 1740.0856 -7381.1190 300.5495 -9121.2046 -7344.4316 302.1142 -298.9465 -213.5897 30051.2649 -55.3049 -3.2240
ENERGY: 1500000 2.2645 6.2153 1.3583 0.0000 -10474.5703 1388.6051 0.0000 0.0000 1773.1590 -7302.9680 306.2620 -9076.1270 -7341.2615 302.0379 -214.5534 -151.8904 29800.0875 -47.1687 5.7843
TCL: Exiting due to exit command.
