Info: SIMULATION PARAMETERS:
Info: TIMESTEP               2
Info: NUMBER OF STEPS        0
Info: STEPS PER CYCLE        10
Info: PERIODIC CELL BASIS 1  31.285 0 0
Info: PERIODIC CELL BASIS 2  0 31.1883 0
Info: PERIODIC CELL BASIS 3  0 0 30.2303
Info: PERIODIC CELL CENTER   0 0 0
Info: WRAPPING WATERS AROUND PERIODIC BOUNDARIES ON OUTPUT.
Info: WRAPPING ALL CLUSTERS AROUND PERIODIC BOUNDARIES ON OUTPUT.
Info: FIRST LDB TIMESTEP     50
Info: LAST LDB TIMESTEP     -1
Info: HOM BACKGROUND SCALING 1
Info: PME BACKGROUND SCALING 1
Info: MIN ATOMS PER PATCH    40
Info: EMPTY PATCH LOAD       40 ATOMS
Info: VELOCITY FILE          mobley_9209581_equil.vel
Info: CENTER OF MASS MOVING INITIALLY? NO
Info: DIELECTRIC             1
Info: EXCLUDE                SCALED ONE-FOUR
Info: 1-4 ELECTROSTATICS SCALED BY 0.833333
Info: MODIFIED 1-4 VDW PARAMETERS WILL BE USED
Info: DCD FILENAME           mobley_9209581_prod.dcd
Info: DCD FREQUENCY          100000
Info: DCD FIRST STEP         100000
Info: DCD FILE WILL CONTAIN UNIT CELL DATA
Info: XST FILENAME           mobley_9209581_prod.xst
Info: XST FREQUENCY          100000
Info: NO VELOCITY DCD OUTPUT
Info: NO FORCE DCD OUTPUT
Info: OUTPUT FILENAME        mobley_9209581_prod
Info: BINARY OUTPUT FILES WILL BE USED
Info: RESTART FILENAME       mobley_9209581_prod.restart
Info: RESTART FREQUENCY      100000
Info: BINARY RESTART FILES WILL BE USED
Info: CUTOFF                 9
Info: PAIRLIST DISTANCE      11
Info: PAIRLIST SHRINK RATE   0.01
Info: PAIRLIST GROW RATE     0.01
Info: PAIRLIST TRIGGER       0.3
Info: PAIRLISTS PER CYCLE    2
Info: PAIRLISTS ENABLED
Info: MARGIN                 2
Info: HYDROGEN GROUP CUTOFF  2.5
Info: PATCH DIMENSION        15.5
Info: ENERGY OUTPUT STEPS    100000
Info: ENERGY EVALUATION STEPS    100000
Info: OUTPUT ENERGY PRECISION 4
Info: CROSSTERM ENERGY INCLUDED IN DIHEDRAL
Info: TIMING OUTPUT STEPS    1000000
Info: PRESSURE OUTPUT STEPS  100000
Info: ALCHEMICAL FEP ON
Info: FEP CURRENT LAMBDA VALUE     1
Info: FEP COMPARISON LAMBDA VALUE  0.95
Info: FEP INTRA-ALCHEMICAL NON-BONDED INTERACTIONS WILL BE RETAINED
Info: FEP INTRA-ALCHEMICAL BONDED INTERACTIONS WILL BE RETAINED
Info: FEP VDW SHIFTING COEFFICIENT 5
Info: FEP ELEC. ACTIVE FOR ANNIHILATED PARTICLES BETWEEN LAMBDA = 0 AND LAMBDA = 0.5
Info: FEP ELEC. ACTIVE FOR EXNIHILATED PARTICLES BETWEEN LAMBDA = 0.5 AND LAMBDA = 1
Info: FEP VDW ACTIVE FOR ANNIHILATED PARTICLES BETWEEN LAMBDA = 0 AND LAMBDA = 1
Info: FEP VDW ACTIVE FOR EXNIHILATED PARTICLES BETWEEN LAMBDA = 0 AND LAMBDA = 1
Info: FEP BOND ACTIVE FOR ANNIHILATED PARTICLES BETWEEN LAMBDA = 1 AND LAMBDA = 1
Info: FEP BOND ACTIVE FOR EXNIHILATED PARTICLES BETWEEN LAMBDA = 0 AND LAMBDA = 0
Info: LANGEVIN DYNAMICS ACTIVE
Info: LANGEVIN TEMPERATURE   300
Info: LANGEVIN USING BBK INTEGRATOR
Info: LANGEVIN DAMPING COEFFICIENT IS 1 INVERSE PS
Info: LANGEVIN DYNAMICS APPLIED TO HYDROGENS
Info: LANGEVIN PISTON PRESSURE CONTROL ACTIVE
Info:        TARGET PRESSURE IS 1.01325 BAR
Info:     OSCILLATION PERIOD IS 50 FS
Info:             DECAY TIME IS 25 FS
Info:     PISTON TEMPERATURE IS 300 K
Info:       PRESSURE CONTROL IS GROUP-BASED
Info:    INITIAL STRAIN RATE IS 6.80746e-05 6.80746e-05 6.80746e-05
Info:       CELL FLUCTUATION IS ISOTROPIC
Info: PARTICLE MESH EWALD (PME) ACTIVE
Info: PME TOLERANCE               1e-06
Info: PME EWALD COEFFICIENT       0.348832
Info: PME INTERPOLATION ORDER     4
Info: PME GRID DIMENSIONS         32 32 32
Info: PME MAXIMUM GRID SPACING    1
Info: PME CALCULATION WILL BE PERFORMED ON GPU
Info: FULL ELECTROSTATIC EVALUATION FREQUENCY      2
Info: USING VERLET I (r-RESPA) MTS SCHEME.
Info: C1 SPLITTING OF LONG RANGE ELECTROSTATICS
Info: PLACING ATOMS IN PATCHES BY HYDROGEN GROUPS
Info: RIGID BONDS TO HYDROGEN : ALL
Info:         ERROR TOLERANCE : 1e-08
Info:          MAX ITERATIONS : 100
Info: RIGID WATER USING SETTLE ALGORITHM
Info: RANDOM NUMBER SEED     1742605272
Info: USE HYDROGEN BONDS?    NO
Info: Using AMBER format force field!
Info: AMBER PARM FILE        mobley_9209581.prmtop
Info: COORDINATE PDB         mobley_9209581.pdb
Info: Exclusions will be read from PARM file!
Info: SCNB (VDW SCALING)     2
Info: USING ARITHMETIC MEAN TO COMBINE L-J SIGMA PARAMETERS
Info: BINARY COORDINATES     mobley_9209581_equil.coor
Info: SUMMARY OF PARAMETERS:
Info: 4 BONDS
Info: 3 ANGLES
Info:   3 HARMONIC
Info:   0 COSINE-BASED
Info: 1 DIHEDRAL
Info: 0 IMPROPER
Info: 0 CROSSTERM
Info: 0 VDW
Info: 15 VDW_PAIRS
Info: 0 NBTHOLE_PAIRS
Info: To read alchdata from file: mobley_9209581.pdb
Info: To read alchflag data from column: 5
Info: STRUCTURE SUMMARY:
Info: 2905 ATOMS
Info: 2904 BONDS
Info: 21 ANGLES
Info: 18 DIHEDRALS
Info: 0 IMPROPERS
Info: 0 CROSSTERMS
Info: 2943 EXCLUSIONS
Info: 2901 RIGID BONDS
Info: ALCH: 0 ATOMS TO DISAPPEAR IN FINAL STATE
Info: ALCH: 13 ATOMS TO APPEAR IN FINAL STATE
Info: 5814 DEGREES OF FREEDOM
Info: 968 HYDROGEN GROUPS
Info: 4 ATOMS IN LARGEST HYDROGEN GROUP
Info: 968 MIGRATION GROUPS
Info: 4 ATOMS IN LARGEST MIGRATION GROUP
Info: TOTAL MASS = 17426.5 amu
Info: TOTAL CHARGE = 0.000399988 e
Info: MASS DENSITY = 0.981069 g/cm^3
Info: ATOM DENSITY = 0.0984862 atoms/A^3
Info: ADDED 0 IMPLICIT EXCLUSIONS
Info: NONBONDED TABLE R-SQUARED SPACING: 0.0625
Info: NONBONDED TABLE SIZE: 705 POINTS
Info: REDUCING NUMBER OF PATCHES TO IMPROVE LOAD BALANCE
Info: REMOVING COM VELOCITY 0.153925 0.0624425 -0.0450428
Info: Use 3D box decompostion in PME FFT.
Info: Updated CUDA force table with 4096 elements.
Info: Updated CUDA LJ table with 5 x 5 elements.
Info: Found 16 unique exclusion lists needing 28 bytes
TCL: Running for 1500000 steps
ETITLE: TS BOND ANGLE DIHED IMPRP ELECT VDW BOUNDARY MISC KINETIC TOTAL TEMP POTENTIAL TOTALAVG TEMPAVG PRESSURE GPRESSURE VOLUME PRESSAVG GPRESSAVG
ENERGY: 0 0.3525 7.3229 1.0766 0.0000 -10606.1779 1479.1333 0.0000 0.0000 1743.8880 -7374.4046 301.8797 -9118.2927 -7374.4046 301.8797 710.1903 793.6231 29496.5136 710.1903 793.6231
ENERGY: 300000 0.3170 5.2393 0.6861 0.0000 -10498.2749 1436.2114 0.0000 0.0000 1715.3942 -7340.4269 296.9472 -9055.8211 -7397.1193 293.6098 77.8628 156.3726 30139.5302 -110.0443 -28.3740
ENERGY: 600000 1.2479 3.9170 0.4595 0.0000 -10440.3490 1295.8114 0.0000 0.0000 1780.9919 -7357.9213 308.3027 -9138.9132 -7373.5826 299.6276 -1188.9282 -1073.2066 30144.3657 -245.6025 -149.1893
ENERGY: 900000 1.1532 2.9435 1.8380 0.0000 -10521.6821 1427.3211 0.0000 0.0000 1699.1688 -7389.2575 294.1385 -9088.4263 -7363.3349 299.0337 114.5761 194.5308 29967.5632 -162.7300 -79.8761
ENERGY: 1200000 3.4780 4.5469 1.2976 0.0000 -10484.0056 1402.5694 0.0000 0.0000 1704.0682 -7368.0455 294.9866 -9072.1137 -7363.0346 298.6628 -174.5644 -67.1618 29917.6067 -144.4315 -62.8918
ENERGY: 1500000 2.0395 3.4658 1.1986 0.0000 -10517.3944 1406.8348 0.0000 0.0000 1727.7150 -7376.1407 299.0801 -9103.8557 -7366.7305 298.8398 -304.3497 -152.7471 30138.4655 -176.5158 -91.8791
TCL: Running FEP window   2: Lambda1 0.95   Lambda2 0.8999999999999999 [dLambda -0.050000000000000044]
TCL: Setting parameter firsttimestep to 0
TCL: Setting parameter alchLambda to 0.95
Info: NONBONDED TABLE R-SQUARED SPACING: 0.0625
Info: NONBONDED TABLE SIZE: 705 POINTS
TCL: Setting parameter alchLambda2 to 0.8999999999999999
Info: NONBONDED TABLE R-SQUARED SPACING: 0.0625
Info: NONBONDED TABLE SIZE: 705 POINTS
TCL: Running for 1500000 steps
ETITLE: TS BOND ANGLE DIHED IMPRP ELECT VDW BOUNDARY MISC KINETIC TOTAL TEMP POTENTIAL TOTALAVG TEMPAVG PRESSURE GPRESSURE VOLUME PRESSAVG GPRESSAVG
ENERGY: 0 2.0395 3.4658 1.1986 0.0000 -10516.5971 1406.7741 0.0000 0.0000 1726.8192 -7376.2997 298.9250 -9103.1190 -7376.2997 298.9250 -248.6146 -160.7090 30138.4655 -248.6146 -160.7090
ENERGY: 300000 1.4019 5.4897 1.1280 0.0000 -10629.9568 1492.5141 0.0000 0.0000 1709.2797 -7420.1434 295.8888 -9129.4231 -7399.6056 298.1503 320.0519 417.7604 29993.4545 38.1033 139.7681
ENERGY: 600000 0.1411 6.2715 0.1444 0.0000 -10517.5570 1420.2742 0.0000 0.0000 1762.5627 -7328.1631 305.1124 -9090.7258 -7377.4434 300.4042 165.5423 192.9171 29671.4127 2.9030 88.6036
ENERGY: 900000 1.3037 8.1808 1.1255 0.0000 -10435.3628 1365.7541 0.0000 0.0000 1731.0748 -7327.9239 299.6617 -9058.9986 -7369.0312 300.1289 -233.1759 -145.4484 29805.2155 -21.7847 57.1226
ENERGY: 1200000 1.7347 4.4761 1.4324 0.0000 -10493.1388 1384.3849 0.0000 0.0000 1707.7913 -7393.3195 295.6311 -9101.1108 -7377.2370 299.5616 -185.3868 -115.2723 29739.9671 -62.4810 13.6549
ENERGY: 1500000 2.4597 4.3121 0.6881 0.0000 -10492.7902 1356.7999 0.0000 0.0000 1718.4767 -7410.0537 297.4808 -9128.5304 -7373.4674 299.5666 -538.8491 -445.2596 29622.4075 -107.2578 -28.6350
TCL: Running FEP window   3: Lambda1 0.8999999999999999 Lambda2 0.8499999999999999 [dLambda -0.050000000000000044]
TCL: Setting parameter firsttimestep to 0
TCL: Setting parameter alchLambda to 0.8999999999999999
Info: NONBONDED TABLE R-SQUARED SPACING: 0.0625
Info: NONBONDED TABLE SIZE: 705 POINTS
TCL: Setting parameter alchLambda2 to 0.8499999999999999
Info: NONBONDED TABLE R-SQUARED SPACING: 0.0625
Info: NONBONDED TABLE SIZE: 705 POINTS
TCL: Running for 1500000 steps
ETITLE: TS BOND ANGLE DIHED IMPRP ELECT VDW BOUNDARY MISC KINETIC TOTAL TEMP POTENTIAL TOTALAVG TEMPAVG PRESSURE GPRESSURE VOLUME PRESSAVG GPRESSAVG
ENERGY: 0 2.4597 4.3121 0.6881 0.0000 -10491.5033 1356.0790 0.0000 0.0000 1717.5992 -7410.3652 297.3289 -9127.9645 -7410.3652 297.3289 -555.2494 -464.4693 29622.4075 -555.2494 -464.4693
ENERGY: 300000 0.8531 5.1937 1.3223 0.0000 -10595.3663 1485.2623 0.0000 0.0000 1702.3585 -7400.3764 294.6907 -9102.7349 -7409.9814 296.6829 736.8463 779.7588 29766.4947 -155.9196 -98.7989
ENERGY: 600000 0.3824 7.4722 1.0462 0.0000 -10479.1202 1345.9825 0.0000 0.0000 1714.9192 -7409.3177 296.8650 -9124.2368 -7406.4241 298.4037 -652.7906 -641.9358 30028.7730 -116.0699 -72.7755
ENERGY: 900000 1.2668 3.7887 0.7994 0.0000 -10526.7644 1373.3591 0.0000 0.0000 1746.1226 -7401.4279 302.2665 -9147.5505 -7411.2850 299.1014 -215.6621 -217.3256 29681.0008 -51.4089 -7.6672
ENERGY: 1200000 2.4371 5.4944 2.2957 0.0000 -10477.1702 1364.0020 0.0000 0.0000 1729.9575 -7372.9835 299.4683 -9102.9410 -7401.3035 299.0099 -345.1142 -316.0958 29576.8148 -153.7714 -96.3766
ENERGY: 1500000 0.5107 5.9398 0.8570 0.0000 -10683.4947 1521.8679 0.0000 0.0000 1723.1919 -7431.1274 298.2971 -9154.3194 -7399.5452 298.7195 684.1091 743.3870 29768.8457 17.0351 78.5230
TCL: Running FEP window   4: Lambda1 0.8499999999999999 Lambda2 0.7999999999999998 [dLambda -0.050000000000000044]
TCL: Setting parameter firsttimestep to 0
TCL: Setting parameter alchLambda to 0.8499999999999999
Info: NONBONDED TABLE R-SQUARED SPACING: 0.0625
Info: NONBONDED TABLE SIZE: 705 POINTS
TCL: Setting parameter alchLambda2 to 0.7999999999999998
Info: NONBONDED TABLE R-SQUARED SPACING: 0.0625
Info: NONBONDED TABLE SIZE: 705 POINTS
TCL: Running for 1500000 steps
ETITLE: TS BOND ANGLE DIHED IMPRP ELECT VDW BOUNDARY MISC KINETIC TOTAL TEMP POTENTIAL TOTALAVG TEMPAVG PRESSURE GPRESSURE VOLUME PRESSAVG GPRESSAVG
ENERGY: 0 0.5107 5.9398 0.8570 0.0000 -10682.6892 1521.9645 0.0000 0.0000 1722.3356 -7431.0816 298.1489 -9153.4172 -7431.0816 298.1489 647.6799 735.4694 29768.8457 647.6799 735.4694
ENERGY: 300000 0.3006 3.5778 0.5541 0.0000 -10492.4108 1396.4350 0.0000 0.0000 1730.8626 -7360.6808 299.6249 -9091.5433 -7368.4303 297.6312 104.9702 147.9819 29683.5890 -91.8248 -21.4734
ENERGY: 600000 1.0407 6.0985 0.7223 0.0000 -10597.1147 1467.6617 0.0000 0.0000 1750.6201 -7370.9714 303.0451 -9121.5916 -7366.3876 299.9635 31.1478 69.7035 30301.3907 -72.4528 -22.6241
ENERGY: 900000 0.5092 5.6976 2.5310 0.0000 -10548.9514 1397.4071 0.0000 0.0000 1697.8951 -7444.9113 293.9180 -9142.8064 -7379.1301 299.1703 -19.4864 75.2460 29209.9625 -260.8133 -206.7550
ENERGY: 1200000 0.7025 9.0287 2.9348 0.0000 -10564.4943 1450.7454 0.0000 0.0000 1761.4711 -7339.6120 304.9235 -9101.0830 -7382.9550 299.1233 248.5899 292.6660 29911.9738 -171.0164 -120.8998
ENERGY: 1500000 0.7176 4.7862 0.7670 0.0000 -10439.9797 1382.1256 0.0000 0.0000 1767.6812 -7283.9022 305.9985 -9051.5834 -7363.9217 300.4152 41.6761 52.7585 29866.7102 -111.5881 -64.2342
TCL: Running FEP window   5: Lambda1 0.7999999999999998 Lambda2 0.7499999999999998 [dLambda -0.050000000000000044]
TCL: Setting parameter firsttimestep to 0
TCL: Setting parameter alchLambda to 0.7999999999999998
Info: NONBONDED TABLE R-SQUARED SPACING: 0.0625
Info: NONBONDED TABLE SIZE: 705 POINTS
TCL: Setting parameter alchLambda2 to 0.7499999999999998
Info: NONBONDED TABLE R-SQUARED SPACING: 0.0625
Info: NONBONDED TABLE SIZE: 705 POINTS
TCL: Running for 1500000 steps
ETITLE: TS BOND ANGLE DIHED IMPRP ELECT VDW BOUNDARY MISC KINETIC TOTAL TEMP POTENTIAL TOTALAVG TEMPAVG PRESSURE GPRESSURE VOLUME PRESSAVG GPRESSAVG
ENERGY: 0 0.7176 4.7862 0.7670 0.0000 -10438.9867 1381.4601 0.0000 0.0000 1766.7804 -7284.4754 305.8426 -9051.2558 -7284.4754 305.8426 -50.6371 36.5120 29866.7102 -50.6371 36.5120
ENERGY: 300000 1.6264 5.4239 1.7008 0.0000 -10577.0589 1466.8862 0.0000 0.0000 1758.8955 -7342.5261 304.4776 -9101.4216 -7342.0905 301.9564 509.3876 548.7429 29706.9140 201.6740 282.3183
ENERGY: 600000 0.3506 8.8869 0.6653 0.0000 -10479.9022 1401.0072 0.0000 0.0000 1791.8667 -7277.1255 310.1852 -9068.9922 -7314.8432 303.8058 -67.3135 32.0645 30041.1881 140.5906 215.2207
ENERGY: 900000 1.2851 6.1121 0.9707 0.0000 -10524.3870 1342.3092 0.0000 0.0000 1744.6031 -7429.1069 302.0035 -9173.7099 -7336.1953 303.4366 -844.1695 -799.1094 29927.5084 221.8283 289.7608
ENERGY: 1200000 0.2915 4.2138 1.8938 0.0000 -10616.9381 1458.3554 0.0000 0.0000 1738.8233 -7413.3602 301.0030 -9152.1835 -7342.7217 302.6936 255.3516 305.5537 29620.1272 170.8203 238.1451
ENERGY: 1500000 1.3986 7.3730 0.7666 0.0000 -10542.2283 1471.4901 0.0000 0.0000 1744.1192 -7317.0809 301.9197 -9061.2001 -7348.1800 301.5625 522.3273 535.2411 29835.7784 211.9618 283.1655
TCL: Running FEP window   6: Lambda1 0.7499999999999998 Lambda2 0.6999999999999997 [dLambda -0.050000000000000044]
TCL: Setting parameter firsttimestep to 0
TCL: Setting parameter alchLambda to 0.7499999999999998
Info: NONBONDED TABLE R-SQUARED SPACING: 0.0625
Info: NONBONDED TABLE SIZE: 705 POINTS
TCL: Setting parameter alchLambda2 to 0.6999999999999997
Info: NONBONDED TABLE R-SQUARED SPACING: 0.0625
Info: NONBONDED TABLE SIZE: 705 POINTS
TCL: Running for 1500000 steps
ETITLE: TS BOND ANGLE DIHED IMPRP ELECT VDW BOUNDARY MISC KINETIC TOTAL TEMP POTENTIAL TOTALAVG TEMPAVG PRESSURE GPRESSURE VOLUME PRESSAVG GPRESSAVG
ENERGY: 0 1.3986 7.3730 0.7666 0.0000 -10541.4813 1471.6184 0.0000 0.0000 1743.2793 -7317.0454 301.7744 -9060.3247 -7317.0454 301.7744 454.3110 532.4089 29835.7784 454.3110 532.4089
ENERGY: 300000 0.7659 4.0038 0.5204 0.0000 -10425.2017 1367.1136 0.0000 0.0000 1714.8090 -7337.9890 296.8459 -9052.7980 -7313.2388 302.5591 -114.7054 -14.8660 29814.2883 178.2695 258.3346
ENERGY: 600000 0.6814 7.6273 0.6793 0.0000 -10541.4103 1440.1378 0.0000 0.0000 1796.9634 -7295.3210 311.0675 -9092.2844 -7334.4800 302.2688 185.6433 230.9439 29792.2866 126.8932 196.0134
ENERGY: 900000 1.4954 4.5630 0.8134 0.0000 -10631.9572 1455.7411 0.0000 0.0000 1738.3194 -7431.0248 300.9158 -9169.3442 -7354.8143 301.7191 -56.8295 -6.2277 29944.9615 -18.1159 47.1929
ENERGY: 1200000 2.4637 5.7807 0.4391 0.0000 -10562.7568 1423.6489 0.0000 0.0000 1735.7225 -7394.7020 300.4662 -9130.4246 -7363.1831 301.7338 -240.2297 -115.6824 29976.8479 -41.1617 36.1531
ENERGY: 1500000 0.0892 3.7144 0.5069 0.0000 -10499.7069 1384.3965 0.0000 0.0000 1799.1505 -7311.8493 311.4461 -9110.9998 -7362.7062 302.3167 -213.5641 -154.6097 29944.5319 -18.2264 56.9703
TCL: Running FEP window   7: Lambda1 0.6999999999999997 Lambda2 0.6499999999999997 [dLambda -0.050000000000000044]
TCL: Setting parameter firsttimestep to 0
TCL: Setting parameter alchLambda to 0.6999999999999997
Info: NONBONDED TABLE R-SQUARED SPACING: 0.0625
Info: NONBONDED TABLE SIZE: 705 POINTS
TCL: Setting parameter alchLambda2 to 0.6499999999999997
Info: NONBONDED TABLE R-SQUARED SPACING: 0.0625
Info: NONBONDED TABLE SIZE: 705 POINTS
TCL: Running for 1500000 steps
ETITLE: TS BOND ANGLE DIHED IMPRP ELECT VDW BOUNDARY MISC KINETIC TOTAL TEMP POTENTIAL TOTALAVG TEMPAVG PRESSURE GPRESSURE VOLUME PRESSAVG GPRESSAVG
ENERGY: 0 0.0892 3.7144 0.5069 0.0000 -10498.1380 1383.3081 0.0000 0.0000 1798.2890 -7312.2304 311.2969 -9110.5194 -7312.2304 311.2969 -253.6612 -170.2980 29944.5319 -253.6612 -170.2980
ENERGY: 300000 0.9798 2.9811 0.7296 0.0000 -10587.9888 1447.6237 0.0000 0.0000 1674.0545 -7461.6203 289.7910 -9135.6748 -7363.6018 300.3088 -104.7994 -22.6284 30045.8517 -382.8898 -293.7254
ENERGY: 600000 2.6749 2.4679 0.7117 0.0000 -10497.1474 1381.4573 0.0000 0.0000 1703.9666 -7405.8691 294.9690 -9109.8356 -7382.6172 301.5177 -635.4490 -581.2562 30326.9719 -253.1760 -178.8810
ENERGY: 900000 2.8207 6.9460 1.1634 0.0000 -10384.4640 1363.2643 0.0000 0.0000 1750.6930 -7259.5766 303.0577 -9010.2696 -7351.1651 302.3964 -52.4582 1.6875 29599.6098 -224.4282 -152.9030
ENERGY: 1200000 0.2508 4.6953 0.8655 0.0000 -10510.3502 1422.4419 0.0000 0.0000 1763.0920 -7319.0047 305.2041 -9082.0967 -7358.6300 301.9123 107.9761 178.1085 29924.0133 -178.4305 -104.4189
ENERGY: 1500000 0.9127 7.0541 2.0791 0.0000 -10628.7215 1486.9016 0.0000 0.0000 1678.5535 -7453.2206 290.5698 -9131.7740 -7375.8473 300.0727 642.4101 635.7471 29465.2899 -85.5542 -16.9196
TCL: Running FEP window   8: Lambda1 0.6499999999999997 Lambda2 0.5999999999999996 [dLambda -0.050000000000000044]
TCL: Setting parameter firsttimestep to 0
TCL: Setting parameter alchLambda to 0.6499999999999997
Info: NONBONDED TABLE R-SQUARED SPACING: 0.0625
Info: NONBONDED TABLE SIZE: 705 POINTS
TCL: Setting parameter alchLambda2 to 0.5999999999999996
Info: NONBONDED TABLE R-SQUARED SPACING: 0.0625
Info: NONBONDED TABLE SIZE: 705 POINTS
TCL: Running for 1500000 steps
ETITLE: TS BOND ANGLE DIHED IMPRP ELECT VDW BOUNDARY MISC KINETIC TOTAL TEMP POTENTIAL TOTALAVG TEMPAVG PRESSURE GPRESSURE VOLUME PRESSAVG GPRESSAVG
ENERGY: 0 0.9127 7.0541 2.0791 0.0000 -10627.7891 1486.7927 0.0000 0.0000 1677.6941 -7453.2565 290.4211 -9130.9506 -7453.2565 290.4211 549.5029 629.9845 29465.2899 549.5029 629.9845
ENERGY: 300000 1.2379 10.4028 1.4075 0.0000 -10521.6453 1412.1729 0.0000 0.0000 1656.9496 -7439.4745 286.8301 -9096.4241 -7377.4909 296.4866 -283.1029 -174.7004 29931.9429 27.0223 109.7384
ENERGY: 600000 0.7629 3.8869 0.8203 0.0000 -10506.2012 1411.2792 0.0000 0.0000 1747.7640 -7341.6879 302.5507 -9089.4519 -7376.2113 298.3639 -17.1878 33.3854 30007.9051 -110.7240 -50.1337
ENERGY: 900000 0.7568 4.8553 0.4364 0.0000 -10365.1484 1284.0045 0.0000 0.0000 1772.2067 -7302.8888 306.7819 -9075.0955 -7378.1071 299.2783 -1250.5467 -1192.6763 30668.4466 -140.7408 -82.1746
ENERGY: 1200000 0.5102 3.3737 1.0639 0.0000 -10510.8272 1409.9435 0.0000 0.0000 1789.7562 -7306.1796 309.8198 -9095.9358 -7379.0726 299.6000 -31.8459 5.7744 29963.0561 -133.6690 -84.3692
ENERGY: 1500000 1.9255 5.0904 0.6923 0.0000 -10364.4987 1325.9672 0.0000 0.0000 1721.4853 -7309.3381 298.0017 -9030.8234 -7367.2635 301.3520 -602.5296 -605.1906 30439.2670 -215.9444 -166.9595
TCL: Running FEP window   9: Lambda1 0.5999999999999996 Lambda2 0.5499999999999996 [dLambda -0.050000000000000044]
TCL: Setting parameter firsttimestep to 0
TCL: Setting parameter alchLambda to 0.5999999999999996
Info: NONBONDED TABLE R-SQUARED SPACING: 0.0625
Info: NONBONDED TABLE SIZE: 705 POINTS
TCL: Setting parameter alchLambda2 to 0.5499999999999996
Info: NONBONDED TABLE R-SQUARED SPACING: 0.0625
Info: NONBONDED TABLE SIZE: 705 POINTS
TCL: Running for 1500000 steps
ETITLE: TS BOND ANGLE DIHED IMPRP ELECT VDW BOUNDARY MISC KINETIC TOTAL TEMP POTENTIAL TOTALAVG TEMPAVG PRESSURE GPRESSURE VOLUME PRESSAVG GPRESSAVG
ENERGY: 0 1.9255 5.0904 0.6923 0.0000 -10363.3617 1326.0340 0.0000 0.0000 1720.5893 -7309.0302 297.8466 -9029.6195 -7309.0302 297.8466 -688.1583 -605.4451 30439.2670 -688.1583 -605.4451
ENERGY: 300000 1.1446 4.5205 1.4411 0.0000 -10562.2508 1429.5294 0.0000 0.0000 1718.2595 -7407.3558 297.4432 -9125.6153 -7377.9296 294.8963 370.4409 444.7453 29263.5380 -122.8054 -49.0617
ENERGY: 600000 0.1276 7.2175 0.6842 0.0000 -10542.6959 1419.6111 0.0000 0.0000 1771.3213 -7343.7343 306.6286 -9115.0555 -7370.3505 298.7823 217.3210 293.9159 29346.7087 58.3429 128.0283
ENERGY: 900000 1.3867 6.8036 0.8263 0.0000 -10589.4282 1526.6263 0.0000 0.0000 1703.6890 -7350.0963 294.9210 -9053.7853 -7357.1250 298.3919 909.2934 999.6399 29836.4613 169.7554 237.0150
ENERGY: 1200000 1.0042 8.7799 1.8206 0.0000 -10606.2439 1476.0350 0.0000 0.0000 1696.4972 -7422.1071 293.6760 -9118.6043 -7357.2472 298.6739 419.6984 454.3465 29600.0780 148.7210 215.0666
ENERGY: 1500000 1.4710 4.8532 0.5492 0.0000 -10374.1156 1311.9488 0.0000 0.0000 1739.0356 -7316.2578 301.0397 -9055.2934 -7359.1036 298.1902 -819.5884 -725.7672 30300.5080 29.3417 92.5976
TCL: Running FEP window  10: Lambda1 0.5499999999999996 Lambda2 0.4999999999999996 [dLambda -0.04999999999999999]
TCL: Setting parameter firsttimestep to 0
TCL: Setting parameter alchLambda to 0.5499999999999996
Info: NONBONDED TABLE R-SQUARED SPACING: 0.0625
Info: NONBONDED TABLE SIZE: 705 POINTS
TCL: Setting parameter alchLambda2 to 0.4999999999999996
Info: NONBONDED TABLE R-SQUARED SPACING: 0.0625
Info: NONBONDED TABLE SIZE: 705 POINTS
TCL: Running for 1500000 steps
ETITLE: TS BOND ANGLE DIHED IMPRP ELECT VDW BOUNDARY MISC KINETIC TOTAL TEMP POTENTIAL TOTALAVG TEMPAVG PRESSURE GPRESSURE VOLUME PRESSAVG GPRESSAVG
ENERGY: 0 1.4710 4.8532 0.5492 0.0000 -10373.4020 1312.3785 0.0000 0.0000 1738.1872 -7315.9629 300.8929 -9054.1501 -7315.9629 300.8929 -799.6986 -726.2045 30300.5080 -799.6986 -726.2045
ENERGY: 300000 1.1342 4.5653 0.5775 0.0000 -10602.5614 1444.1149 0.0000 0.0000 1763.0461 -7389.1235 305.1961 -9152.1696 -7357.6646 302.1978 283.7772 297.2012 29525.0659 77.8307 132.1997
ENERGY: 600000 0.0834 4.3657 2.0521 0.0000 -10523.4908 1438.1740 0.0000 0.0000 1759.3766 -7319.4389 304.5609 -9078.8155 -7358.5897 303.1929 327.4810 356.7881 29831.7088 42.3697 99.0844
ENERGY: 900000 0.2284 2.4831 0.9651 0.0000 -10612.8383 1474.5971 0.0000 0.0000 1722.3390 -7412.2256 298.1494 -9134.5646 -7360.4938 302.2203 435.9349 482.6312 29754.9681 -0.2133 43.1194
ENERGY: 1200000 0.3220 5.1349 0.5615 0.0000 -10589.3369 1450.4410 0.0000 0.0000 1763.0700 -7369.8076 305.2003 -9132.8776 -7367.1569 301.1603 151.2200 233.1579 29737.3808 -31.5555 13.5701
ENERGY: 1500000 0.2650 6.2269 0.4378 0.0000 -10410.2428 1405.6656 0.0000 0.0000 1704.7214 -7292.9262 295.0997 -8997.6475 -7364.2232 299.9138 74.3190 156.4158 30132.5006 30.1486 77.3681
TCL: Running FEP window  11: Lambda1 0.4999999999999996 Lambda2 0.4499999999999996 [dLambda -0.04999999999999999]
TCL: Setting parameter firsttimestep to 0
TCL: Setting parameter alchLambda to 0.4999999999999996
Info: NONBONDED TABLE R-SQUARED SPACING: 0.0625
Info: NONBONDED TABLE SIZE: 705 POINTS
TCL: Setting parameter alchLambda2 to 0.4499999999999996
Info: NONBONDED TABLE R-SQUARED SPACING: 0.0625
Info: NONBONDED TABLE SIZE: 705 POINTS
TCL: Running for 1500000 steps
ETITLE: TS BOND ANGLE DIHED IMPRP ELECT VDW BOUNDARY MISC KINETIC TOTAL TEMP POTENTIAL TOTALAVG TEMPAVG PRESSURE GPRESSURE VOLUME PRESSAVG GPRESSAVG
ENERGY: 0 0.2650 6.2269 0.4378 0.0000 -10410.3425 1405.8145 0.0000 0.0000 1703.8584 -7293.7399 294.9503 -8997.5983 -7293.7399 294.9503 73.0253 149.0054 30132.5006 73.0253 149.0054
ENERGY: 300000 2.0924 5.9515 1.0581 0.0000 -10545.6210 1455.7090 0.0000 0.0000 1757.5772 -7323.2329 304.2494 -9080.8101 -7352.7010 300.1553 528.4842 568.6837 29557.4289 -57.5896 14.9209
ENERGY: 600000 0.2888 5.7004 1.4707 0.0000 -10605.2635 1453.5527 0.0000 0.0000 1703.8372 -7440.4137 294.9466 -9144.2509 -7363.5387 298.3288 243.9738 346.4422 29431.2382 -131.5889 -46.8278
ENERGY: 900000 0.3916 4.2746 0.9748 0.0000 -10478.8583 1430.8491 0.0000 0.0000 1722.4279 -7319.9404 298.1648 -9042.3683 -7376.9717 297.6281 293.9778 292.3584 30018.3221 -112.3190 -29.6112
ENERGY: 1200000 0.5377 6.5071 0.1089 0.0000 -10388.5402 1343.0715 0.0000 0.0000 1735.9130 -7302.4019 300.4992 -9038.3149 -7362.9114 298.0392 -207.7102 -178.4275 29494.7651 -117.0933 -46.4063
ENERGY: 1500000 0.1710 4.2452 2.6912 0.0000 -10586.3780 1466.0452 0.0000 0.0000 1775.9718 -7337.2535 307.4337 -9113.2253 -7356.2112 298.8353 658.0031 658.0315 29512.8713 -105.8790 -39.3315
TCL: Running FEP window  12: Lambda1 0.4499999999999996 Lambda2 0.39999999999999963 [dLambda -0.04999999999999999]
TCL: Setting parameter firsttimestep to 0
TCL: Setting parameter alchLambda to 0.4499999999999996
Info: NONBONDED TABLE R-SQUARED SPACING: 0.0625
Info: NONBONDED TABLE SIZE: 705 POINTS
TCL: Setting parameter alchLambda2 to 0.39999999999999963
Info: NONBONDED TABLE R-SQUARED SPACING: 0.0625
Info: NONBONDED TABLE SIZE: 705 POINTS
TCL: Running for 1500000 steps
ETITLE: TS BOND ANGLE DIHED IMPRP ELECT VDW BOUNDARY MISC KINETIC TOTAL TEMP POTENTIAL TOTALAVG TEMPAVG PRESSURE GPRESSURE VOLUME PRESSAVG GPRESSAVG
ENERGY: 0 0.1710 4.2452 2.6912 0.0000 -10586.3772 1466.1132 0.0000 0.0000 1775.1052 -7338.0514 307.2837 -9113.1566 -7338.0514 307.2837 573.2425 651.6823 29512.8713 573.2425 651.6823
ENERGY: 300000 0.1629 4.8234 1.2906 0.0000 -10586.9656 1472.7907 0.0000 0.0000 1711.1133 -7396.7846 296.2062 -9107.8979 -7355.1936 302.1874 797.1353 820.3071 29276.4847 299.5441 329.4433
ENERGY: 600000 1.1452 5.4780 2.0747 0.0000 -10407.5321 1350.7733 0.0000 0.0000 1754.3012 -7293.7597 303.6823 -9048.0608 -7363.6787 301.3915 -470.1970 -466.7139 30163.5248 161.0916 195.5262
ENERGY: 900000 1.4336 6.4795 1.2289 0.0000 -10527.2909 1419.4560 0.0000 0.0000 1772.2970 -7326.3960 306.7975 -9098.6930 -7358.0030 301.4362 -40.3920 7.0505 30039.4083 -3.8131 43.7155
ENERGY: 1200000 1.9877 3.7069 1.6160 0.0000 -10536.6423 1391.4625 0.0000 0.0000 1695.3389 -7442.5303 293.4755 -9137.8692 -7368.5095 300.7596 -670.0454 -563.9224 30110.7227 -33.9360 11.3185
ENERGY: 1500000 3.7949 5.9135 0.5638 0.0000 -10443.2091 1366.1027 0.0000 0.0000 1737.7436 -7329.0907 300.8161 -9066.8342 -7369.6205 299.9822 -380.8494 -271.3902 29733.6160 -101.5320 -47.6232
TCL: Running FEP window  13: Lambda1 0.39999999999999963 Lambda2 0.34999999999999964 [dLambda -0.04999999999999999]
TCL: Setting parameter firsttimestep to 0
TCL: Setting parameter alchLambda to 0.39999999999999963
Info: NONBONDED TABLE R-SQUARED SPACING: 0.0625
Info: NONBONDED TABLE SIZE: 705 POINTS
TCL: Setting parameter alchLambda2 to 0.34999999999999964
Info: NONBONDED TABLE R-SQUARED SPACING: 0.0625
Info: NONBONDED TABLE SIZE: 705 POINTS
TCL: Running for 1500000 steps
ETITLE: TS BOND ANGLE DIHED IMPRP ELECT VDW BOUNDARY MISC KINETIC TOTAL TEMP POTENTIAL TOTALAVG TEMPAVG PRESSURE GPRESSURE VOLUME PRESSAVG GPRESSAVG
ENERGY: 0 3.7949 5.9135 0.5638 0.0000 -10443.2087 1366.3016 0.0000 0.0000 1736.8858 -7329.7492 300.6676 -9066.6349 -7329.7492 300.6676 -374.0097 -271.6382 29733.6160 -374.0097 -271.6382
ENERGY: 300000 0.1867 4.1704 0.9532 0.0000 -10511.5699 1389.7392 0.0000 0.0000 1744.7755 -7371.7449 302.0334 -9116.5204 -7359.4389 296.8723 -334.4196 -252.5432 29995.6087 -386.7700 -318.1363
ENERGY: 600000 0.5499 6.1042 1.1966 0.0000 -10429.6884 1374.9239 0.0000 0.0000 1742.3751 -7304.5387 301.6178 -9046.9138 -7351.2871 297.3784 -260.2989 -216.9384 30017.5869 -154.8985 -97.0976
ENERGY: 900000 0.4359 6.4061 0.6304 0.0000 -10705.7413 1553.7997 0.0000 0.0000 1701.9990 -7442.4702 294.6284 -9144.4692 -7352.2501 298.4816 989.7604 1001.5691 29671.2622 -41.3640 6.7873
ENERGY: 1200000 0.8466 6.1613 2.1351 0.0000 -10583.3812 1432.8574 0.0000 0.0000 1702.0549 -7439.3259 294.6381 -9141.3808 -7359.5649 298.8512 2.7522 16.8495 29746.6897 -48.2786 1.0880
ENERGY: 1500000 2.0441 3.2614 1.1628 0.0000 -10480.2181 1366.4792 0.0000 0.0000 1681.1487 -7426.1220 291.0191 -9107.2706 -7363.8209 298.0024 -518.5599 -475.3728 29851.5129 -96.4807 -53.8958
TCL: Running FEP window  14: Lambda1 0.34999999999999964 Lambda2 0.29999999999999966 [dLambda -0.04999999999999999]
TCL: Setting parameter firsttimestep to 0
TCL: Setting parameter alchLambda to 0.34999999999999964
Info: NONBONDED TABLE R-SQUARED SPACING: 0.0625
Info: NONBONDED TABLE SIZE: 705 POINTS
TCL: Setting parameter alchLambda2 to 0.29999999999999966
Info: NONBONDED TABLE R-SQUARED SPACING: 0.0625
Info: NONBONDED TABLE SIZE: 705 POINTS
TCL: Running for 1500000 steps
ETITLE: TS BOND ANGLE DIHED IMPRP ELECT VDW BOUNDARY MISC KINETIC TOTAL TEMP POTENTIAL TOTALAVG TEMPAVG PRESSURE GPRESSURE VOLUME PRESSAVG GPRESSAVG
ENERGY: 0 2.0441 3.2614 1.1628 0.0000 -10480.2191 1366.3315 0.0000 0.0000 1680.2398 -7427.1794 290.8618 -9107.4193 -7427.1794 290.8618 -570.7212 -480.6394 29851.5129 -570.7212 -480.6394
ENERGY: 300000 0.5036 8.7396 0.1984 0.0000 -10508.3057 1438.1606 0.0000 0.0000 1747.3199 -7313.3837 302.4738 -9060.7036 -7354.7392 298.1193 110.8526 164.2132 30283.6018 -119.6416 -58.2098
ENERGY: 600000 0.2386 6.6172 0.4868 0.0000 -10636.8525 1445.7990 0.0000 0.0000 1745.7492 -7437.9617 302.2019 -9183.7109 -7378.4255 300.2749 154.5647 180.5783 29523.3590 -27.1302 22.8384
ENERGY: 900000 3.1597 7.2469 0.4205 0.0000 -10569.0615 1424.6444 0.0000 0.0000 1711.2259 -7422.3640 296.2257 -9133.5899 -7366.8093 300.1709 150.9158 217.5892 29122.5472 -39.0486 13.6230
ENERGY: 1200000 0.3872 7.8984 1.9530 0.0000 -10455.6331 1413.2911 0.0000 0.0000 1713.1677 -7318.9356 296.5618 -9032.1033 -7366.6863 299.9955 -110.7104 -49.5046 30409.8055 -60.1524 -9.5772
ENERGY: 1500000 1.2189 7.2017 2.6922 0.0000 -10472.1572 1385.1798 0.0000 0.0000 1761.1459 -7314.7187 304.8672 -9075.8646 -7362.4480 299.9982 -196.8920 -129.6084 29743.4241 -104.2154 -50.1251
TCL: Running FEP window  15: Lambda1 0.29999999999999966 Lambda2 0.24999999999999967 [dLambda -0.04999999999999999]
TCL: Setting parameter firsttimestep to 0
TCL: Setting parameter alchLambda to 0.29999999999999966
Info: NONBONDED TABLE R-SQUARED SPACING: 0.0625
Info: NONBONDED TABLE SIZE: 705 POINTS
TCL: Setting parameter alchLambda2 to 0.24999999999999967
Info: NONBONDED TABLE R-SQUARED SPACING: 0.0625
Info: NONBONDED TABLE SIZE: 705 POINTS
TCL: Running for 1500000 steps
ETITLE: TS BOND ANGLE DIHED IMPRP ELECT VDW BOUNDARY MISC KINETIC TOTAL TEMP POTENTIAL TOTALAVG TEMPAVG PRESSURE GPRESSURE VOLUME PRESSAVG GPRESSAVG
ENERGY: 0 1.2189 7.2017 2.6922 0.0000 -10472.1571 1384.7309 0.0000 0.0000 1760.2836 -7316.0300 304.7179 -9076.3135 -7316.0300 304.7179 -224.3338 -136.5100 29743.4241 -224.3338 -136.5100
ENERGY: 300000 1.3520 7.3299 0.9527 0.0000 -10565.7525 1469.7255 0.0000 0.0000 1782.8308 -7303.5616 308.6210 -9086.3924 -7313.6075 304.9917 526.8670 568.7887 29527.9016 269.0972 335.9251
ENERGY: 600000 1.1595 7.9066 0.7238 0.0000 -10529.3739 1399.7890 0.0000 0.0000 1717.0385 -7402.7567 297.2319 -9119.7951 -7328.2844 303.4356 -279.1025 -162.4804 29679.1984 64.4256 140.0195
ENERGY: 900000 0.5536 3.0856 0.4576 0.0000 -10598.1378 1393.9213 0.0000 0.0000 1734.8839 -7465.2359 300.3210 -9200.1197 -7344.0071 303.1436 -463.2442 -447.1482 29796.4356 87.0946 146.2361
ENERGY: 1200000 1.3771 4.2350 0.4299 0.0000 -10531.8319 1472.1847 0.0000 0.0000 1727.9668 -7325.6384 299.1236 -9053.6052 -7352.5179 301.7219 555.9253 619.1053 29719.1606 -7.3362 48.8527
ENERGY: 1500000 1.5056 2.4911 0.5805 0.0000 -10599.7975 1453.2832 0.0000 0.0000 1747.5089 -7394.4282 302.5065 -9141.9371 -7358.6026 301.2755 -138.3651 -71.4167 30004.7578 -87.4589 -26.0086
TCL: Running FEP window  16: Lambda1 0.24999999999999967 Lambda2 0.19999999999999968 [dLambda -0.04999999999999999]
TCL: Setting parameter firsttimestep to 0
TCL: Setting parameter alchLambda to 0.24999999999999967
Info: NONBONDED TABLE R-SQUARED SPACING: 0.0625
Info: NONBONDED TABLE SIZE: 705 POINTS
TCL: Setting parameter alchLambda2 to 0.19999999999999968
Info: NONBONDED TABLE R-SQUARED SPACING: 0.0625
Info: NONBONDED TABLE SIZE: 705 POINTS
TCL: Running for 1500000 steps
ETITLE: TS BOND ANGLE DIHED IMPRP ELECT VDW BOUNDARY MISC KINETIC TOTAL TEMP POTENTIAL TOTALAVG TEMPAVG PRESSURE GPRESSURE VOLUME PRESSAVG GPRESSAVG
ENERGY: 0 1.5056 2.4911 0.5805 0.0000 -10599.7977 1453.2189 0.0000 0.0000 1746.6384 -7395.3633 302.3558 -9142.0017 -7395.3633 302.3558 -145.3422 -75.5138 30004.7578 -145.3422 -75.5138
ENERGY: 300000 0.3257 3.5884 1.1605 0.0000 -10670.2070 1518.4364 0.0000 0.0000 1734.8547 -7411.8413 300.3160 -9146.6960 -7366.3358 303.1232 557.2238 682.9576 29710.7144 134.4241 218.6926
ENERGY: 600000 0.7308 5.9292 2.8137 0.0000 -10457.9496 1467.6048 0.0000 0.0000 1714.2220 -7266.6491 296.7443 -8980.8711 -7348.7580 300.3720 474.9608 520.0048 30221.9385 43.9751 118.8281
ENERGY: 900000 0.3260 4.5560 1.8697 0.0000 -10533.8719 1434.6895 0.0000 0.0000 1742.2344 -7350.1964 301.5935 -9092.4308 -7354.1817 300.5001 128.5729 221.1690 29767.8942 19.9959 94.8829
ENERGY: 1200000 0.2481 7.8349 1.2013 0.0000 -10472.7354 1374.8570 0.0000 0.0000 1682.7334 -7405.8607 291.2934 -9088.5941 -7359.9352 299.4229 -530.9488 -438.0380 30014.0724 20.9684 86.7775
ENERGY: 1500000 0.4212 3.5333 0.5923 0.0000 -10616.8170 1534.8624 0.0000 0.0000 1675.9670 -7401.4408 290.1221 -9077.4078 -7363.9849 298.8152 979.8462 1098.9137 29682.6978 19.2137 93.6814
TCL: Running FEP window  17: Lambda1 0.19999999999999968 Lambda2 0.1499999999999997 [dLambda -0.04999999999999999]
TCL: Setting parameter firsttimestep to 0
TCL: Setting parameter alchLambda to 0.19999999999999968
Info: NONBONDED TABLE R-SQUARED SPACING: 0.0625
Info: NONBONDED TABLE SIZE: 705 POINTS
TCL: Setting parameter alchLambda2 to 0.1499999999999997
Info: NONBONDED TABLE R-SQUARED SPACING: 0.0625
Info: NONBONDED TABLE SIZE: 705 POINTS
TCL: Running for 1500000 steps
ETITLE: TS BOND ANGLE DIHED IMPRP ELECT VDW BOUNDARY MISC KINETIC TOTAL TEMP POTENTIAL TOTALAVG TEMPAVG PRESSURE GPRESSURE VOLUME PRESSAVG GPRESSAVG
ENERGY: 0 0.4212 3.5333 0.5923 0.0000 -10616.8159 1534.6110 0.0000 0.0000 1675.0705 -7402.5876 289.9669 -9077.6581 -7402.5876 289.9669 1013.1628 1096.3254 29682.6978 1013.1628 1096.3254
ENERGY: 300000 0.8034 3.4444 1.0384 0.0000 -10560.4051 1418.2056 0.0000 0.0000 1776.6410 -7360.2724 307.5495 -9136.9134 -7372.7435 300.1924 -130.7421 -20.9666 29782.0096 103.1893 181.6376
ENERGY: 600000 0.1276 4.2761 0.5166 0.0000 -10620.4007 1431.3990 0.0000 0.0000 1739.1673 -7444.9140 301.0625 -9184.0813 -7400.1898 297.9959 -119.6413 -110.2783 29801.2827 34.6510 105.0313
ENERGY: 900000 0.8449 6.1332 2.8938 0.0000 -10445.9738 1351.7522 0.0000 0.0000 1814.3529 -7269.9968 314.0777 -9084.3497 -7387.7225 298.1817 -400.9653 -306.8104 29495.9439 -126.1005 -49.2074
ENERGY: 1200000 0.3790 3.1669 2.1598 0.0000 -10525.3484 1392.4028 0.0000 0.0000 1730.2524 -7396.9875 299.5193 -9127.2399 -7384.7492 298.3119 -409.9480 -334.0263 29926.4425 -143.4944 -73.1368
ENERGY: 1500000 0.1722 3.2993 0.4465 0.0000 -10518.1965 1397.4367 0.0000 0.0000 1715.0726 -7401.7691 296.8916 -9116.8417 -7385.7658 298.4576 -137.0500 -33.5607 29629.5260 -202.3657 -134.2988
TCL: Running FEP window  18: Lambda1 0.1499999999999997 Lambda2 0.09999999999999969 [dLambda -0.05 ]
TCL: Setting parameter firsttimestep to 0
TCL: Setting parameter alchLambda to 0.1499999999999997
Info: NONBONDED TABLE R-SQUARED SPACING: 0.0625
Info: NONBONDED TABLE SIZE: 705 POINTS
TCL: Setting parameter alchLambda2 to 0.09999999999999969
Info: NONBONDED TABLE R-SQUARED SPACING: 0.0625
Info: NONBONDED TABLE SIZE: 705 POINTS
TCL: Running for 1500000 steps
ETITLE: TS BOND ANGLE DIHED IMPRP ELECT VDW BOUNDARY MISC KINETIC TOTAL TEMP POTENTIAL TOTALAVG TEMPAVG PRESSURE GPRESSURE VOLUME PRESSAVG GPRESSAVG
ENERGY: 0 0.1722 3.2993 0.4465 0.0000 -10518.1973 1396.4560 0.0000 0.0000 1714.2044 -7403.6188 296.7413 -9117.8232 -7403.6188 296.7413 -136.2638 -42.5181 29629.5260 -136.2638 -42.5181
ENERGY: 300000 0.1545 7.4602 3.7642 0.0000 -10526.1371 1408.2261 0.0000 0.0000 1689.9724 -7416.5599 292.5465 -9106.5323 -7355.4852 297.3408 39.8343 135.5487 29388.3791 55.8215 109.1767
ENERGY: 600000 0.1940 4.3725 2.7413 0.0000 -10535.2877 1417.8550 0.0000 0.0000 1718.9028 -7391.2220 297.5546 -9110.1249 -7382.3278 297.7270 -148.4952 -107.3521 30123.5895 16.1638 57.9140
ENERGY: 900000 0.5612 4.8684 1.0341 0.0000 -10533.6788 1451.7962 0.0000 0.0000 1710.3287 -7365.0902 296.0704 -9075.4189 -7375.9906 298.0293 10.3995 141.3812 30154.6034 -115.3901 -65.7354
ENERGY: 1200000 1.6578 7.7199 1.6061 0.0000 -10494.9901 1388.4011 0.0000 0.0000 1749.8758 -7345.7293 302.9163 -9095.6051 -7371.5676 297.2232 -159.5190 -112.4508 29738.6108 -205.2181 -148.5937
ENERGY: 1500000 0.1404 7.1071 0.7530 0.0000 -10472.9006 1386.4712 0.0000 0.0000 1739.9823 -7338.4465 301.2036 -9078.4288 -7374.8354 297.1342 -164.6240 -94.9708 29670.9056 -212.8607 -156.6853
TCL: Running FEP window  19: Lambda1 0.09999999999999969 Lambda2 0.049999999999999684 [dLambda -0.05 ]
TCL: Setting parameter firsttimestep to 0
TCL: Setting parameter alchLambda to 0.09999999999999969
Info: NONBONDED TABLE R-SQUARED SPACING: 0.0625
Info: NONBONDED TABLE SIZE: 705 POINTS
TCL: Setting parameter alchLambda2 to 0.049999999999999684
Info: NONBONDED TABLE R-SQUARED SPACING: 0.0625
Info: NONBONDED TABLE SIZE: 705 POINTS
TCL: Running for 1500000 steps
ETITLE: TS BOND ANGLE DIHED IMPRP ELECT VDW BOUNDARY MISC KINETIC TOTAL TEMP POTENTIAL TOTALAVG TEMPAVG PRESSURE GPRESSURE VOLUME PRESSAVG GPRESSAVG
ENERGY: 0 0.1404 7.1071 0.7530 0.0000 -10472.9020 1386.6529 0.0000 0.0000 1739.0758 -7339.1728 301.0467 -9078.2486 -7339.1728 301.0467 -176.2696 -94.5460 29670.9056 -176.2696 -94.5460
ENERGY: 300000 0.6524 7.2782 2.0163 0.0000 -10566.2239 1411.9161 0.0000 0.0000 1783.8641 -7360.4967 308.7999 -9144.3608 -7356.6831 301.7355 -147.0257 -64.8195 29578.8823 21.7902 106.9452
ENERGY: 600000 0.6284 3.3634 1.6948 0.0000 -10410.8563 1322.7936 0.0000 0.0000 1751.7456 -7330.6306 303.2399 -9082.3761 -7343.8036 302.2424 -850.1495 -823.8553 30011.5055 -333.3573 -263.2670
ENERGY: 900000 0.3554 10.2365 0.6932 0.0000 -10569.6576 1415.3828 0.0000 0.0000 1705.5139 -7437.4758 295.2369 -9142.9897 -7356.0268 300.9623 -216.9403 -142.3459 29690.9390 -296.7583 -233.0779
ENERGY: 1200000 1.1287 4.8808 0.9602 0.0000 -10553.5319 1402.2511 0.0000 0.0000 1716.5083 -7427.8028 297.1401 -9144.3110 -7368.6810 299.3564 -229.7923 -221.7537 29582.2881 -349.2169 -293.3929
ENERGY: 1500000 1.0409 7.1219 1.1769 0.0000 -10650.1579 1482.4752 0.0000 0.0000 1747.2085 -7411.1345 302.4545 -9158.3430 -7373.1073 299.1778 332.7672 381.7717 29511.3616 -260.0809 -205.1332
TCL: Running FEP window  20: Lambda1 0.049999999999999684 Lambda2 0.0    [dLambda -0.049999999999999684]
TCL: Setting parameter firsttimestep to 0
TCL: Setting parameter alchLambda to 0.049999999999999684
Info: NONBONDED TABLE R-SQUARED SPACING: 0.0625
Info: NONBONDED TABLE SIZE: 705 POINTS
TCL: Setting parameter alchLambda2 to 0.0
Info: NONBONDED TABLE R-SQUARED SPACING: 0.0625
Info: NONBONDED TABLE SIZE: 705 POINTS
TCL: Running for 1500000 steps
ETITLE: TS BOND ANGLE DIHED IMPRP ELECT VDW BOUNDARY MISC KINETIC TOTAL TEMP POTENTIAL TOTALAVG TEMPAVG PRESSURE GPRESSURE VOLUME PRESSAVG GPRESSAVG
ENERGY: 0 1.0409 7.1219 1.1769 0.0000 -10650.1575 1482.3114 0.0000 0.0000 1746.3157 -7412.1907 302.3000 -9158.5064 -7412.1907 302.3000 285.5072 378.1928 29511.3616 285.5072 378.1928
ENERGY: 300000 0.2125 5.9325 3.1362 0.0000 -10521.1438 1416.8363 0.0000 0.0000 1777.7890 -7317.2373 307.7482 -9095.0263 -7352.5377 302.4153 -106.1984 34.2029 29630.0016 271.6033 350.3364
ENERGY: 600000 1.2787 5.9039 2.1810 0.0000 -10299.7266 1292.8474 0.0000 0.0000 1759.7584 -7237.7571 304.6270 -8997.5155 -7341.7656 301.1511 -1070.3893 -979.9366 30429.4215 -111.1679 -38.8395
ENERGY: 900000 0.4667 4.3406 1.4079 0.0000 -10485.3418 1397.1610 0.0000 0.0000 1703.8871 -7378.0785 294.9553 -9081.9656 -7353.0204 300.7218 -375.5881 -305.0953 30040.0594 -100.3766 -38.8522
ENERGY: 1200000 0.6303 6.6662 1.1945 0.0000 -10568.7850 1462.5758 0.0000 0.0000 1750.5458 -7347.1724 303.0322 -9097.7182 -7364.9569 300.4434 301.1083 410.5491 29716.8236 -40.5660 20.4878
ENERGY: 1500000 1.8903 6.1004 2.2163 0.0000 -10552.0754 1381.7268 0.0000 0.0000 1718.6056 -7441.5359 297.5032 -9160.1415 -7377.0954 300.3339 -309.8282 -271.7917 29413.6658 -33.5475 28.3377
TCL: Exiting due to exit command.
