Info: SIMULATION PARAMETERS:
Info: TIMESTEP               2
Info: NUMBER OF STEPS        0
Info: STEPS PER CYCLE        10
Info: PERIODIC CELL BASIS 1  30.2991 0 0
Info: PERIODIC CELL BASIS 2  0 31.3655 0
Info: PERIODIC CELL BASIS 3  0 0 31.6419
Info: PERIODIC CELL CENTER   0 0 0
Info: WRAPPING WATERS AROUND PERIODIC BOUNDARIES ON OUTPUT.
Info: WRAPPING ALL CLUSTERS AROUND PERIODIC BOUNDARIES ON OUTPUT.
Info: FIRST LDB TIMESTEP     50
Info: LAST LDB TIMESTEP     -1
Info: HOM BACKGROUND SCALING 1
Info: PME BACKGROUND SCALING 1
Info: MIN ATOMS PER PATCH    40
Info: EMPTY PATCH LOAD       40 ATOMS
Info: VELOCITY FILE          mobley_299266_equil.vel
Info: CENTER OF MASS MOVING INITIALLY? NO
Info: DIELECTRIC             1
Info: EXCLUDE                SCALED ONE-FOUR
Info: 1-4 ELECTROSTATICS SCALED BY 0.833333
Info: MODIFIED 1-4 VDW PARAMETERS WILL BE USED
Info: DCD FILENAME           mobley_299266_prod.dcd
Info: DCD FREQUENCY          100000
Info: DCD FIRST STEP         100000
Info: DCD FILE WILL CONTAIN UNIT CELL DATA
Info: XST FILENAME           mobley_299266_prod.xst
Info: XST FREQUENCY          100000
Info: NO VELOCITY DCD OUTPUT
Info: NO FORCE DCD OUTPUT
Info: OUTPUT FILENAME        mobley_299266_prod
Info: BINARY OUTPUT FILES WILL BE USED
Info: RESTART FILENAME       mobley_299266_prod.restart
Info: RESTART FREQUENCY      100000
Info: BINARY RESTART FILES WILL BE USED
Info: CUTOFF                 9
Info: PAIRLIST DISTANCE      11
Info: PAIRLIST SHRINK RATE   0.01
Info: PAIRLIST GROW RATE     0.01
Info: PAIRLIST TRIGGER       0.3
Info: PAIRLISTS PER CYCLE    2
Info: PAIRLISTS ENABLED
Info: MARGIN                 2
Info: HYDROGEN GROUP CUTOFF  2.5
Info: PATCH DIMENSION        15.5
Info: ENERGY OUTPUT STEPS    100000
Info: ENERGY EVALUATION STEPS    100000
Info: OUTPUT ENERGY PRECISION 4
Info: CROSSTERM ENERGY INCLUDED IN DIHEDRAL
Info: TIMING OUTPUT STEPS    1000000
Info: PRESSURE OUTPUT STEPS  100000
Info: ALCHEMICAL FEP ON
Info: FEP CURRENT LAMBDA VALUE     1
Info: FEP COMPARISON LAMBDA VALUE  0.95
Info: FEP INTRA-ALCHEMICAL NON-BONDED INTERACTIONS WILL BE RETAINED
Info: FEP INTRA-ALCHEMICAL BONDED INTERACTIONS WILL BE RETAINED
Info: FEP VDW SHIFTING COEFFICIENT 5
Info: FEP ELEC. ACTIVE FOR ANNIHILATED PARTICLES BETWEEN LAMBDA = 0 AND LAMBDA = 0.5
Info: FEP ELEC. ACTIVE FOR EXNIHILATED PARTICLES BETWEEN LAMBDA = 0.5 AND LAMBDA = 1
Info: FEP VDW ACTIVE FOR ANNIHILATED PARTICLES BETWEEN LAMBDA = 0 AND LAMBDA = 1
Info: FEP VDW ACTIVE FOR EXNIHILATED PARTICLES BETWEEN LAMBDA = 0 AND LAMBDA = 1
Info: FEP BOND ACTIVE FOR ANNIHILATED PARTICLES BETWEEN LAMBDA = 1 AND LAMBDA = 1
Info: FEP BOND ACTIVE FOR EXNIHILATED PARTICLES BETWEEN LAMBDA = 0 AND LAMBDA = 0
Info: LANGEVIN DYNAMICS ACTIVE
Info: LANGEVIN TEMPERATURE   300
Info: LANGEVIN USING BBK INTEGRATOR
Info: LANGEVIN DAMPING COEFFICIENT IS 1 INVERSE PS
Info: LANGEVIN DYNAMICS APPLIED TO HYDROGENS
Info: LANGEVIN PISTON PRESSURE CONTROL ACTIVE
Info:        TARGET PRESSURE IS 1.01325 BAR
Info:     OSCILLATION PERIOD IS 50 FS
Info:             DECAY TIME IS 25 FS
Info:     PISTON TEMPERATURE IS 300 K
Info:       PRESSURE CONTROL IS GROUP-BASED
Info:    INITIAL STRAIN RATE IS 0.000154633 0.000154633 0.000154633
Info:       CELL FLUCTUATION IS ISOTROPIC
Info: PARTICLE MESH EWALD (PME) ACTIVE
Info: PME TOLERANCE               1e-06
Info: PME EWALD COEFFICIENT       0.348832
Info: PME INTERPOLATION ORDER     4
Info: PME GRID DIMENSIONS         32 32 32
Info: PME MAXIMUM GRID SPACING    1
Info: PME CALCULATION WILL BE PERFORMED ON GPU
Info: FULL ELECTROSTATIC EVALUATION FREQUENCY      2
Info: USING VERLET I (r-RESPA) MTS SCHEME.
Info: C1 SPLITTING OF LONG RANGE ELECTROSTATICS
Info: PLACING ATOMS IN PATCHES BY HYDROGEN GROUPS
Info: RIGID BONDS TO HYDROGEN : ALL
Info:         ERROR TOLERANCE : 1e-08
Info:          MAX ITERATIONS : 100
Info: RIGID WATER USING SETTLE ALGORITHM
Info: RANDOM NUMBER SEED     1742557318
Info: USE HYDROGEN BONDS?    NO
Info: Using AMBER format force field!
Info: AMBER PARM FILE        mobley_299266.prmtop
Info: COORDINATE PDB         mobley_299266.pdb
Info: Exclusions will be read from PARM file!
Info: SCNB (VDW SCALING)     2
Info: USING ARITHMETIC MEAN TO COMBINE L-J SIGMA PARAMETERS
Info: BINARY COORDINATES     mobley_299266_equil.coor
Info: SUMMARY OF PARAMETERS:
Info: 6 BONDS
Info: 6 ANGLES
Info:   6 HARMONIC
Info:   0 COSINE-BASED
Info: 3 DIHEDRAL
Info: 0 IMPROPER
Info: 0 CROSSTERM
Info: 0 VDW
Info: 21 VDW_PAIRS
Info: 0 NBTHOLE_PAIRS
Info: To read alchdata from file: mobley_299266.pdb
Info: To read alchflag data from column: 5
Info: STRUCTURE SUMMARY:
Info: 2907 ATOMS
Info: 2906 BONDS
Info: 18 ANGLES
Info: 16 DIHEDRALS
Info: 0 IMPROPERS
Info: 0 CROSSTERMS
Info: 2940 EXCLUSIONS
Info: 2903 RIGID BONDS
Info: ALCH: 0 ATOMS TO DISAPPEAR IN FINAL STATE
Info: ALCH: 12 ATOMS TO APPEAR IN FINAL STATE
Info: 5818 DEGREES OF FREEDOM
Info: 969 HYDROGEN GROUPS
Info: 4 ATOMS IN LARGEST HYDROGEN GROUP
Info: 969 MIGRATION GROUPS
Info: 4 ATOMS IN LARGEST MIGRATION GROUP
Info: TOTAL MASS = 17441.5 amu
Info: TOTAL CHARGE = -0.000199981 e
Info: MASS DENSITY = 0.963164 g/cm^3
Info: ATOM DENSITY = 0.0966721 atoms/A^3
Info: ADDED 0 IMPLICIT EXCLUSIONS
Info: NONBONDED TABLE R-SQUARED SPACING: 0.0625
Info: NONBONDED TABLE SIZE: 705 POINTS
Info: REMOVING COM VELOCITY 0.0653217 0.220225 -0.0787118
Info: Use 3D box decompostion in PME FFT.
Info: Updated CUDA force table with 4096 elements.
Info: Updated CUDA LJ table with 6 x 6 elements.
Info: Found 15 unique exclusion lists needing 28 bytes
TCL: Running for 1500000 steps
ETITLE: TS BOND ANGLE DIHED IMPRP ELECT VDW BOUNDARY MISC KINETIC TOTAL TEMP POTENTIAL TOTALAVG TEMPAVG PRESSURE GPRESSURE VOLUME PRESSAVG GPRESSAVG
ENERGY: 0 2.0854 3.8953 1.5860 0.0000 -10437.6855 1360.6996 0.0000 0.0000 1747.2526 -7322.1666 302.2542 -9069.4191 -7322.1666 302.2542 -434.4828 -347.4003 30070.7195 -434.4828 -347.4003
ENERGY: 300000 0.9863 3.7541 0.2655 0.0000 -10382.2308 1335.5336 0.0000 0.0000 1789.9708 -7251.7205 309.6440 -9041.6913 -7350.0637 301.6015 -893.7436 -794.3266 30989.8002 -737.9132 -665.8062
ENERGY: 600000 0.3738 2.3875 1.5042 0.0000 -10546.4074 1399.6276 0.0000 0.0000 1727.5127 -7415.0017 298.8394 -9142.5143 -7339.5429 303.4978 -336.2098 -248.4790 30099.5246 -367.4575 -304.3252
ENERGY: 900000 1.5780 4.2313 1.8215 0.0000 -10481.3375 1376.5354 0.0000 0.0000 1746.5706 -7350.6008 302.1362 -9097.1714 -7351.3152 302.6723 -237.0186 -273.8556 30054.7648 -406.7424 -356.4096
ENERGY: 1200000 0.9774 4.5719 0.2806 0.0000 -10606.7474 1428.8761 0.0000 0.0000 1727.8876 -7444.1539 298.9043 -9172.0414 -7357.6609 302.1827 -132.7437 -3.9100 29937.2733 -237.5975 -169.4018
ENERGY: 1500000 0.5257 5.4492 1.6211 0.0000 -10584.0244 1439.0031 0.0000 0.0000 1766.3819 -7371.0434 305.5634 -9137.4252 -7354.9886 301.9438 189.4403 246.5730 29829.6710 -195.1874 -126.2338
TCL: Running FEP window   2: Lambda1 0.95   Lambda2 0.8999999999999999 [dLambda -0.050000000000000044]
TCL: Setting parameter firsttimestep to 0
TCL: Setting parameter alchLambda to 0.95
Info: NONBONDED TABLE R-SQUARED SPACING: 0.0625
Info: NONBONDED TABLE SIZE: 705 POINTS
TCL: Setting parameter alchLambda2 to 0.8999999999999999
Info: NONBONDED TABLE R-SQUARED SPACING: 0.0625
Info: NONBONDED TABLE SIZE: 705 POINTS
TCL: Running for 1500000 steps
ETITLE: TS BOND ANGLE DIHED IMPRP ELECT VDW BOUNDARY MISC KINETIC TOTAL TEMP POTENTIAL TOTALAVG TEMPAVG PRESSURE GPRESSURE VOLUME PRESSAVG GPRESSAVG
ENERGY: 0 0.5257 5.4492 1.6211 0.0000 -10583.8881 1439.3250 0.0000 0.0000 1765.4899 -7371.4771 305.4091 -9136.9671 -7371.4771 305.4091 150.8199 240.5201 29829.6710 150.8199 240.5201
ENERGY: 300000 0.0695 4.6126 0.7816 0.0000 -10545.7768 1428.6522 0.0000 0.0000 1743.7961 -7367.8648 301.6563 -9111.6609 -7357.6927 304.3647 22.3398 76.0007 30056.5557 -169.4227 -100.3591
ENERGY: 600000 0.1772 6.5978 0.7022 0.0000 -10501.3642 1372.8249 0.0000 0.0000 1745.4334 -7375.6288 301.9395 -9121.0621 -7345.1665 305.3147 -442.8366 -347.0852 30176.7734 -257.1988 -185.7068
ENERGY: 900000 1.1670 4.1759 1.4207 0.0000 -10558.0176 1380.9418 0.0000 0.0000 1759.7714 -7410.5409 304.4198 -9170.3122 -7356.9216 304.4466 -328.3474 -363.5766 29735.6520 -160.7370 -110.0691
ENERGY: 1200000 1.0646 4.1759 0.5882 0.0000 -10604.8098 1427.7279 0.0000 0.0000 1682.6785 -7488.5747 291.0836 -9171.2532 -7364.5584 303.1735 4.0133 30.2022 29795.5981 -120.9439 -71.8305
ENERGY: 1500000 2.6692 5.9445 1.3095 0.0000 -10217.1515 1203.6424 0.0000 0.0000 1674.1707 -7329.4153 289.6119 -9003.5859 -7365.1323 301.8797 -1669.9468 -1596.6946 30475.0143 -157.8975 -102.9761
TCL: Running FEP window   3: Lambda1 0.8999999999999999 Lambda2 0.8499999999999999 [dLambda -0.050000000000000044]
TCL: Setting parameter firsttimestep to 0
TCL: Setting parameter alchLambda to 0.8999999999999999
Info: NONBONDED TABLE R-SQUARED SPACING: 0.0625
Info: NONBONDED TABLE SIZE: 705 POINTS
TCL: Setting parameter alchLambda2 to 0.8499999999999999
Info: NONBONDED TABLE R-SQUARED SPACING: 0.0625
Info: NONBONDED TABLE SIZE: 705 POINTS
TCL: Running for 1500000 steps
ETITLE: TS BOND ANGLE DIHED IMPRP ELECT VDW BOUNDARY MISC KINETIC TOTAL TEMP POTENTIAL TOTALAVG TEMPAVG PRESSURE GPRESSURE VOLUME PRESSAVG GPRESSAVG
ENERGY: 0 2.6692 5.9445 1.3095 0.0000 -10217.0972 1203.9937 0.0000 0.0000 1673.3284 -7329.8519 289.4662 -9003.1803 -7329.8519 289.4662 -1679.2916 -1597.5117 30475.0143 -1679.2916 -1597.5117
ENERGY: 300000 1.5077 2.6268 1.3475 0.0000 -10336.5246 1262.1056 0.0000 0.0000 1671.8494 -7397.0877 289.2103 -9068.9372 -7361.4858 297.0446 -1282.0751 -1212.2835 30579.5357 -571.7142 -506.4051
ENERGY: 600000 1.3153 4.3372 1.2963 0.0000 -10569.0691 1431.2379 0.0000 0.0000 1707.1412 -7423.7412 295.3154 -9130.8824 -7383.8149 297.5458 152.8110 176.6993 30001.2866 -321.5247 -269.0494
ENERGY: 900000 0.7120 4.3865 2.2229 0.0000 -10504.6246 1383.9742 0.0000 0.0000 1772.3492 -7340.9798 306.5956 -9113.3290 -7377.5227 298.6303 -228.2678 -129.1543 29826.4158 -415.7687 -358.2408
ENERGY: 1200000 0.8025 2.1094 1.5338 0.0000 -10446.8013 1366.6068 0.0000 0.0000 1731.5441 -7344.2048 299.5368 -9075.7489 -7365.7228 298.5106 -469.9532 -377.5623 30365.2053 -403.2288 -339.4914
ENERGY: 1500000 1.9065 4.8605 1.7540 0.0000 -10682.5073 1472.2379 0.0000 0.0000 1765.3905 -7436.3578 305.3919 -9201.7483 -7370.0219 299.3568 635.8332 684.1268 29201.2386 -335.5470 -279.2045
TCL: Running FEP window   4: Lambda1 0.8499999999999999 Lambda2 0.7999999999999998 [dLambda -0.050000000000000044]
TCL: Setting parameter firsttimestep to 0
TCL: Setting parameter alchLambda to 0.8499999999999999
Info: NONBONDED TABLE R-SQUARED SPACING: 0.0625
Info: NONBONDED TABLE SIZE: 705 POINTS
TCL: Setting parameter alchLambda2 to 0.7999999999999998
Info: NONBONDED TABLE R-SQUARED SPACING: 0.0625
Info: NONBONDED TABLE SIZE: 705 POINTS
TCL: Running for 1500000 steps
ETITLE: TS BOND ANGLE DIHED IMPRP ELECT VDW BOUNDARY MISC KINETIC TOTAL TEMP POTENTIAL TOTALAVG TEMPAVG PRESSURE GPRESSURE VOLUME PRESSAVG GPRESSAVG
ENERGY: 0 1.9065 4.8605 1.7540 0.0000 -10682.3695 1472.3627 0.0000 0.0000 1764.5339 -7436.9519 305.2437 -9201.4858 -7436.9519 305.2437 613.8123 674.5309 29201.2386 613.8123 674.5309
ENERGY: 300000 0.8901 5.8385 2.2628 0.0000 -10479.9894 1352.6576 0.0000 0.0000 1714.5489 -7403.7915 296.5969 -9118.3404 -7384.9419 303.4056 -417.5556 -347.2268 29591.9804 -260.8582 -190.1223
ENERGY: 600000 0.1445 5.1049 3.2250 0.0000 -10514.8861 1396.3292 0.0000 0.0000 1720.3881 -7389.6945 297.6070 -9110.0826 -7384.3126 301.2758 -120.2287 -80.6640 29961.8760 -287.1891 -213.6364
ENERGY: 900000 0.1431 4.5363 0.6991 0.0000 -10659.6807 1475.9474 0.0000 0.0000 1754.6478 -7423.7070 303.5335 -9178.3548 -7371.7749 302.6991 739.8092 793.2964 29111.3421 -207.7088 -136.1409
ENERGY: 1200000 0.9693 1.8563 1.6026 0.0000 -10474.7845 1397.2647 0.0000 0.0000 1762.0743 -7311.0173 304.8182 -9073.0916 -7373.5353 302.5239 45.3528 96.5290 29732.9200 -157.6766 -87.5088
ENERGY: 1500000 0.4879 1.6739 1.0151 0.0000 -10458.9423 1434.6357 0.0000 0.0000 1726.1500 -7294.9797 298.6037 -9021.1297 -7372.1701 302.0516 498.0025 578.0979 29845.5233 -106.7139 -40.1753
TCL: Running FEP window   5: Lambda1 0.7999999999999998 Lambda2 0.7499999999999998 [dLambda -0.050000000000000044]
TCL: Setting parameter firsttimestep to 0
TCL: Setting parameter alchLambda to 0.7999999999999998
Info: NONBONDED TABLE R-SQUARED SPACING: 0.0625
Info: NONBONDED TABLE SIZE: 705 POINTS
TCL: Setting parameter alchLambda2 to 0.7499999999999998
Info: NONBONDED TABLE R-SQUARED SPACING: 0.0625
Info: NONBONDED TABLE SIZE: 705 POINTS
TCL: Running for 1500000 steps
ETITLE: TS BOND ANGLE DIHED IMPRP ELECT VDW BOUNDARY MISC KINETIC TOTAL TEMP POTENTIAL TOTALAVG TEMPAVG PRESSURE GPRESSURE VOLUME PRESSAVG GPRESSAVG
ENERGY: 0 0.4879 1.6739 1.0151 0.0000 -10458.9988 1434.9269 0.0000 0.0000 1725.3048 -7295.5901 298.4575 -9020.8949 -7295.5901 298.4575 486.4976 571.5525 29845.5233 486.4976 571.5525
ENERGY: 300000 1.5822 2.6442 1.5205 0.0000 -10666.5544 1516.7686 0.0000 0.0000 1710.7918 -7433.2471 295.9469 -9144.0389 -7365.4042 298.5803 796.6897 872.8888 29578.9060 202.3498 293.4548
ENERGY: 600000 1.1567 3.8754 1.9763 0.0000 -10485.9844 1340.1236 0.0000 0.0000 1709.4257 -7429.4267 295.7106 -9138.8524 -7385.9707 297.0034 -888.0719 -805.9674 30088.5038 -120.6431 -39.8769
ENERGY: 900000 0.2904 5.9406 1.2604 0.0000 -10504.7210 1365.0250 0.0000 0.0000 1731.8974 -7400.3072 299.5979 -9132.2046 -7378.0470 297.2148 -737.4741 -644.5190 30299.6544 -148.9817 -73.7923
ENERGY: 1200000 1.0446 4.4092 4.1534 0.0000 -10501.5574 1426.6196 0.0000 0.0000 1764.0859 -7301.2448 305.1662 -9065.3307 -7385.6925 297.4169 10.4180 121.9120 30052.6927 -17.5143 55.1418
ENERGY: 1500000 2.5494 4.8736 2.0285 0.0000 -10518.8651 1408.4542 0.0000 0.0000 1683.2892 -7417.6702 291.1893 -9100.9594 -7383.3405 298.0902 56.7456 94.6644 29816.9341 -23.6766 51.0232
TCL: Running FEP window   6: Lambda1 0.7499999999999998 Lambda2 0.6999999999999997 [dLambda -0.050000000000000044]
TCL: Setting parameter firsttimestep to 0
TCL: Setting parameter alchLambda to 0.7499999999999998
Info: NONBONDED TABLE R-SQUARED SPACING: 0.0625
Info: NONBONDED TABLE SIZE: 705 POINTS
TCL: Setting parameter alchLambda2 to 0.6999999999999997
Info: NONBONDED TABLE R-SQUARED SPACING: 0.0625
Info: NONBONDED TABLE SIZE: 705 POINTS
TCL: Running for 1500000 steps
ETITLE: TS BOND ANGLE DIHED IMPRP ELECT VDW BOUNDARY MISC KINETIC TOTAL TEMP POTENTIAL TOTALAVG TEMPAVG PRESSURE GPRESSURE VOLUME PRESSAVG GPRESSAVG
ENERGY: 0 2.5494 4.8736 2.0285 0.0000 -10518.7361 1407.9647 0.0000 0.0000 1682.4233 -7418.8966 291.0395 -9101.3199 -7418.8966 291.0395 15.8840 85.1936 29816.9341 15.8840 85.1936
ENERGY: 300000 1.8920 4.8996 2.5819 0.0000 -10586.3602 1453.2350 0.0000 0.0000 1715.8904 -7407.8612 296.8289 -9123.7516 -7385.4924 297.3621 359.5780 450.7120 29575.5589 -104.2328 -24.8781
ENERGY: 600000 0.2939 4.0487 0.9891 0.0000 -10602.0395 1410.7125 0.0000 0.0000 1685.9227 -7500.0726 291.6449 -9185.9953 -7388.9262 297.8822 -249.5168 -199.2305 29866.5414 -306.8449 -242.5506
ENERGY: 900000 1.5970 2.5016 1.9472 0.0000 -10483.5437 1399.5917 0.0000 0.0000 1782.1220 -7295.7842 308.2862 -9077.9062 -7373.9621 299.4284 22.1895 80.1228 29899.1323 -165.8368 -103.2939
ENERGY: 1200000 0.2249 5.2983 0.5789 0.0000 -10363.2845 1327.8961 0.0000 0.0000 1772.2107 -7257.0757 306.5717 -9029.2863 -7362.6094 300.0898 -407.2796 -411.8718 30216.4822 -135.0133 -75.3559
ENERGY: 1500000 0.6038 7.1903 0.6914 0.0000 -10465.8825 1395.2450 0.0000 0.0000 1709.1292 -7353.0228 295.6593 -9062.1520 -7367.6177 299.3879 -176.8677 -137.6051 30072.3216 -170.4870 -114.8233
TCL: Running FEP window   7: Lambda1 0.6999999999999997 Lambda2 0.6499999999999997 [dLambda -0.050000000000000044]
TCL: Setting parameter firsttimestep to 0
TCL: Setting parameter alchLambda to 0.6999999999999997
Info: NONBONDED TABLE R-SQUARED SPACING: 0.0625
Info: NONBONDED TABLE SIZE: 705 POINTS
TCL: Setting parameter alchLambda2 to 0.6499999999999997
Info: NONBONDED TABLE R-SQUARED SPACING: 0.0625
Info: NONBONDED TABLE SIZE: 705 POINTS
TCL: Running for 1500000 steps
ETITLE: TS BOND ANGLE DIHED IMPRP ELECT VDW BOUNDARY MISC KINETIC TOTAL TEMP POTENTIAL TOTALAVG TEMPAVG PRESSURE GPRESSURE VOLUME PRESSAVG GPRESSAVG
ENERGY: 0 0.6038 7.1903 0.6914 0.0000 -10465.8333 1395.6506 0.0000 0.0000 1708.2701 -7353.4271 295.5107 -9061.6972 -7353.4271 295.5107 -222.5252 -136.0852 30072.3216 -222.5252 -136.0852
ENERGY: 300000 0.0940 2.9234 0.6071 0.0000 -10484.2272 1363.0652 0.0000 0.0000 1759.5181 -7358.0194 304.3760 -9117.5375 -7364.5006 299.6999 -622.0649 -563.8127 30213.9705 -371.3083 -330.2744
ENERGY: 600000 0.3687 5.2721 0.5971 0.0000 -10566.6312 1409.5099 0.0000 0.0000 1700.0919 -7450.7916 294.0960 -9150.8835 -7396.1182 297.5550 120.0824 183.8719 29492.7617 -168.2572 -132.3801
ENERGY: 900000 0.4508 2.1921 1.5808 0.0000 -10537.5181 1406.0442 0.0000 0.0000 1748.3731 -7378.8771 302.4481 -9127.2502 -7392.1190 297.5846 -44.0594 -32.7509 29704.3157 -237.5485 -202.2804
ENERGY: 1200000 1.7547 4.0126 1.7047 0.0000 -10578.1211 1433.2375 0.0000 0.0000 1701.9206 -7435.4910 294.4123 -9137.4116 -7389.2324 297.8488 234.6520 202.7131 29671.8990 -209.4268 -172.7050
ENERGY: 1500000 1.5981 1.2688 0.7810 0.0000 -10682.8973 1467.1755 0.0000 0.0000 1741.1490 -7470.9249 301.1984 -9212.0739 -7392.7188 298.6749 517.0624 527.9222 29547.7773 -99.1538 -53.0212
TCL: Running FEP window   8: Lambda1 0.6499999999999997 Lambda2 0.5999999999999996 [dLambda -0.050000000000000044]
TCL: Setting parameter firsttimestep to 0
TCL: Setting parameter alchLambda to 0.6499999999999997
Info: NONBONDED TABLE R-SQUARED SPACING: 0.0625
Info: NONBONDED TABLE SIZE: 705 POINTS
TCL: Setting parameter alchLambda2 to 0.5999999999999996
Info: NONBONDED TABLE R-SQUARED SPACING: 0.0625
Info: NONBONDED TABLE SIZE: 705 POINTS
TCL: Running for 1500000 steps
ETITLE: TS BOND ANGLE DIHED IMPRP ELECT VDW BOUNDARY MISC KINETIC TOTAL TEMP POTENTIAL TOTALAVG TEMPAVG PRESSURE GPRESSURE VOLUME PRESSAVG GPRESSAVG
ENERGY: 0 1.5981 1.2688 0.7810 0.0000 -10682.8600 1467.6281 0.0000 0.0000 1740.2842 -7471.2998 301.0488 -9211.5840 -7471.2998 301.0488 459.9336 529.1935 29547.7773 459.9336 529.1935
ENERGY: 300000 1.1506 6.0045 1.2216 0.0000 -10469.8741 1422.3230 0.0000 0.0000 1815.2983 -7223.8761 314.0253 -9039.1744 -7375.7110 304.0167 -154.5341 -49.2835 30755.7602 -28.5167 60.6033
ENERGY: 600000 0.4158 3.0574 1.3996 0.0000 -10584.0072 1411.3609 0.0000 0.0000 1716.5037 -7451.2697 296.9350 -9167.7735 -7392.6511 300.3306 -165.5274 -102.9244 29840.5029 31.4766 106.6200
ENERGY: 900000 0.7442 4.1871 1.7786 0.0000 -10397.5294 1328.3138 0.0000 0.0000 1741.9603 -7320.5454 301.3387 -9062.5057 -7384.2673 300.1984 -418.5442 -421.8076 30082.9689 -13.3874 50.7615
ENERGY: 1200000 2.7318 3.4879 1.4278 0.0000 -10619.3616 1425.4105 0.0000 0.0000 1760.5802 -7425.7234 304.5597 -9186.3036 -7381.0575 301.0167 -304.5471 -192.9982 29841.6884 18.7490 88.9469
ENERGY: 1500000 1.3299 4.2784 2.4142 0.0000 -10474.7938 1405.4957 0.0000 0.0000 1700.4470 -7360.8286 294.1574 -9061.2756 -7384.6557 300.6481 17.9527 9.8003 30108.2844 -9.4108 46.0220
TCL: Running FEP window   9: Lambda1 0.5999999999999996 Lambda2 0.5499999999999996 [dLambda -0.050000000000000044]
TCL: Setting parameter firsttimestep to 0
TCL: Setting parameter alchLambda to 0.5999999999999996
Info: NONBONDED TABLE R-SQUARED SPACING: 0.0625
Info: NONBONDED TABLE SIZE: 705 POINTS
TCL: Setting parameter alchLambda2 to 0.5499999999999996
Info: NONBONDED TABLE R-SQUARED SPACING: 0.0625
Info: NONBONDED TABLE SIZE: 705 POINTS
TCL: Running for 1500000 steps
ETITLE: TS BOND ANGLE DIHED IMPRP ELECT VDW BOUNDARY MISC KINETIC TOTAL TEMP POTENTIAL TOTALAVG TEMPAVG PRESSURE GPRESSURE VOLUME PRESSAVG GPRESSAVG
ENERGY: 0 1.3299 4.2784 2.4142 0.0000 -10474.7167 1405.4552 0.0000 0.0000 1699.5656 -7361.6734 294.0049 -9061.2390 -7361.6734 294.0049 -66.8283 2.3652 30108.2844 -66.8283 2.3652
ENERGY: 300000 0.7937 5.3382 4.9578 0.0000 -10542.0429 1394.5476 0.0000 0.0000 1730.8500 -7405.5555 299.4168 -9136.4055 -7378.1314 298.3454 -299.2748 -231.5173 30015.8334 -213.7695 -147.1137
ENERGY: 600000 0.4933 3.5054 2.7714 0.0000 -10660.2880 1536.7161 0.0000 0.0000 1707.3872 -7409.4145 295.3580 -9116.8017 -7391.2233 298.8877 951.2587 1063.7696 29596.1319 -71.1395 -3.4053
ENERGY: 900000 0.9577 3.3988 3.5586 0.0000 -10666.1065 1482.1217 0.0000 0.0000 1762.9592 -7413.1105 304.9713 -9176.0697 -7393.5527 300.4584 599.3793 655.3823 29496.0988 13.4350 83.5188
ENERGY: 1200000 0.5840 4.9039 2.0632 0.0000 -10556.9961 1451.0584 0.0000 0.0000 1743.6667 -7354.7201 301.6339 -9098.3867 -7391.9875 300.3537 429.8520 516.1602 29815.7452 56.2456 123.8847
ENERGY: 1500000 1.1255 5.3876 2.5488 0.0000 -10553.1902 1450.3338 0.0000 0.0000 1733.8919 -7359.9027 299.9430 -9093.7945 -7391.5204 300.0889 273.9776 351.4555 29852.5140 57.3073 125.2801
TCL: Running FEP window  10: Lambda1 0.5499999999999996 Lambda2 0.4999999999999996 [dLambda -0.04999999999999999]
TCL: Setting parameter firsttimestep to 0
TCL: Setting parameter alchLambda to 0.5499999999999996
Info: NONBONDED TABLE R-SQUARED SPACING: 0.0625
Info: NONBONDED TABLE SIZE: 705 POINTS
TCL: Setting parameter alchLambda2 to 0.4999999999999996
Info: NONBONDED TABLE R-SQUARED SPACING: 0.0625
Info: NONBONDED TABLE SIZE: 705 POINTS
TCL: Running for 1500000 steps
ETITLE: TS BOND ANGLE DIHED IMPRP ELECT VDW BOUNDARY MISC KINETIC TOTAL TEMP POTENTIAL TOTALAVG TEMPAVG PRESSURE GPRESSURE VOLUME PRESSAVG GPRESSAVG
ENERGY: 0 1.1255 5.3876 2.5488 0.0000 -10553.1722 1450.4802 0.0000 0.0000 1733.0422 -7360.5878 299.7960 -9093.6301 -7360.5878 299.7960 266.0466 345.9513 29852.5140 266.0466 345.9513
ENERGY: 300000 0.6642 3.7255 0.8070 0.0000 -10621.3338 1426.7034 0.0000 0.0000 1706.5125 -7482.9210 295.2067 -9189.4336 -7413.5496 296.4046 -284.8313 -191.5749 29979.4819 -151.8470 -37.0308
ENERGY: 600000 0.4931 6.8848 0.3027 0.0000 -10490.8251 1380.6626 0.0000 0.0000 1778.2889 -7324.1930 307.6231 -9102.4818 -7399.1810 298.4745 -220.4624 -191.8794 29838.4023 -166.0774 -72.5145
ENERGY: 900000 0.3758 2.9459 1.4581 0.0000 -10540.4071 1439.5581 0.0000 0.0000 1666.2358 -7429.8334 288.2393 -9096.0692 -7388.8092 297.8014 297.2788 355.8685 29692.9908 -109.7776 -30.9183
ENERGY: 1200000 0.0111 4.9576 0.4425 0.0000 -10596.5342 1514.7679 0.0000 0.0000 1696.5910 -7379.7641 293.4904 -9076.3552 -7389.2811 298.6837 992.6135 1006.9645 29620.9089 44.4167 114.9958
ENERGY: 1500000 0.6861 2.6403 1.3893 0.0000 -10580.1982 1418.1849 0.0000 0.0000 1775.4786 -7381.8190 307.1370 -9157.2977 -7388.4040 298.9995 24.8170 90.3932 29554.5198 46.5659 113.0268
TCL: Running FEP window  11: Lambda1 0.4999999999999996 Lambda2 0.4499999999999996 [dLambda -0.04999999999999999]
TCL: Setting parameter firsttimestep to 0
TCL: Setting parameter alchLambda to 0.4999999999999996
Info: NONBONDED TABLE R-SQUARED SPACING: 0.0625
Info: NONBONDED TABLE SIZE: 705 POINTS
TCL: Setting parameter alchLambda2 to 0.4499999999999996
Info: NONBONDED TABLE R-SQUARED SPACING: 0.0625
Info: NONBONDED TABLE SIZE: 705 POINTS
TCL: Running for 1500000 steps
ETITLE: TS BOND ANGLE DIHED IMPRP ELECT VDW BOUNDARY MISC KINETIC TOTAL TEMP POTENTIAL TOTALAVG TEMPAVG PRESSURE GPRESSURE VOLUME PRESSAVG GPRESSAVG
ENERGY: 0 0.6861 2.6403 1.3893 0.0000 -10580.1135 1418.2758 0.0000 0.0000 1774.6097 -7382.5123 306.9867 -9157.1220 -7382.5123 306.9867 -11.4284 87.2735 29554.5198 -11.4284 87.2735
ENERGY: 300000 0.6775 5.9102 1.4853 0.0000 -10574.1920 1406.9127 0.0000 0.0000 1702.9214 -7456.2850 294.5854 -9159.2063 -7406.0466 302.6135 -164.6028 -86.2791 29746.0552 -203.7288 -123.2707
ENERGY: 600000 1.2007 4.5604 1.5258 0.0000 -10566.2523 1472.6164 0.0000 0.0000 1720.8908 -7365.4583 297.6939 -9086.3491 -7395.1982 301.1821 413.8092 478.8196 29843.0847 71.0810 138.3390
ENERGY: 900000 1.5423 2.4738 1.1962 0.0000 -10426.1603 1358.1034 0.0000 0.0000 1769.0360 -7293.8088 306.0225 -9062.8448 -7383.5519 300.3110 -202.3973 -80.4889 29538.7271 -2.8577 69.6291
ENERGY: 1200000 0.2213 2.8936 2.6175 0.0000 -10399.1810 1376.3436 0.0000 0.0000 1718.2358 -7298.8692 297.2346 -9017.1050 -7374.9524 299.0081 -145.2168 -113.0617 30282.3351 -43.3263 30.6456
ENERGY: 1500000 0.4309 3.0949 0.5595 0.0000 -10445.8964 1390.5189 0.0000 0.0000 1695.5885 -7355.7037 293.3169 -9051.2921 -7380.5996 298.3038 111.8168 177.3844 29644.0472 4.5758 80.1177
TCL: Running FEP window  12: Lambda1 0.4499999999999996 Lambda2 0.39999999999999963 [dLambda -0.04999999999999999]
TCL: Setting parameter firsttimestep to 0
TCL: Setting parameter alchLambda to 0.4499999999999996
Info: NONBONDED TABLE R-SQUARED SPACING: 0.0625
Info: NONBONDED TABLE SIZE: 705 POINTS
TCL: Setting parameter alchLambda2 to 0.39999999999999963
Info: NONBONDED TABLE R-SQUARED SPACING: 0.0625
Info: NONBONDED TABLE SIZE: 705 POINTS
TCL: Running for 1500000 steps
ETITLE: TS BOND ANGLE DIHED IMPRP ELECT VDW BOUNDARY MISC KINETIC TOTAL TEMP POTENTIAL TOTALAVG TEMPAVG PRESSURE GPRESSURE VOLUME PRESSAVG GPRESSAVG
ENERGY: 0 0.4309 3.0949 0.5595 0.0000 -10445.8965 1390.7921 0.0000 0.0000 1694.7490 -7356.2701 293.1717 -9051.0191 -7356.2701 293.1717 93.5897 175.4266 29644.0472 93.5897 175.4266
ENERGY: 300000 0.2359 6.5530 0.6547 0.0000 -10572.2438 1461.2708 0.0000 0.0000 1784.3542 -7319.1751 308.6724 -9103.5293 -7358.7328 300.1611 202.9488 361.2331 29898.7924 -212.7011 -142.4326
ENERGY: 600000 0.4171 3.0642 4.2500 0.0000 -10465.7564 1370.2077 0.0000 0.0000 1760.1713 -7327.6461 304.4890 -9087.8174 -7367.7986 299.8386 -243.5091 -155.1870 29770.5561 -261.3744 -186.9224
ENERGY: 900000 0.0774 3.5834 2.1843 0.0000 -10730.9766 1528.7711 0.0000 0.0000 1715.3086 -7481.0518 296.7283 -9196.3604 -7368.3866 300.0950 951.1602 963.7081 29297.6322 -70.6264 -20.5131
ENERGY: 1200000 0.8423 5.5232 0.5264 0.0000 -10487.2559 1381.6086 0.0000 0.0000 1677.5943 -7421.1613 290.2041 -9098.7555 -7376.6913 298.1658 -222.5129 -75.2426 29631.5777 -29.3295 27.3275
ENERGY: 1500000 0.2086 6.4258 1.5334 0.0000 -10495.4797 1404.9715 0.0000 0.0000 1745.2548 -7337.0855 301.9086 -9082.3403 -7371.1807 298.6534 -9.5890 43.5895 29909.0885 5.7188 64.2903
TCL: Running FEP window  13: Lambda1 0.39999999999999963 Lambda2 0.34999999999999964 [dLambda -0.04999999999999999]
TCL: Setting parameter firsttimestep to 0
TCL: Setting parameter alchLambda to 0.39999999999999963
Info: NONBONDED TABLE R-SQUARED SPACING: 0.0625
Info: NONBONDED TABLE SIZE: 705 POINTS
TCL: Setting parameter alchLambda2 to 0.34999999999999964
Info: NONBONDED TABLE R-SQUARED SPACING: 0.0625
Info: NONBONDED TABLE SIZE: 705 POINTS
TCL: Running for 1500000 steps
ETITLE: TS BOND ANGLE DIHED IMPRP ELECT VDW BOUNDARY MISC KINETIC TOTAL TEMP POTENTIAL TOTALAVG TEMPAVG PRESSURE GPRESSURE VOLUME PRESSAVG GPRESSAVG
ENERGY: 0 0.2086 6.4258 1.5334 0.0000 -10495.4776 1405.1984 0.0000 0.0000 1744.4068 -7337.7045 301.7619 -9082.1113 -7337.7045 301.7619 -48.1569 37.8175 29909.0885 -48.1569 37.8175
ENERGY: 300000 0.2940 3.3199 0.9403 0.0000 -10661.7506 1440.4331 0.0000 0.0000 1740.8156 -7475.9477 301.1407 -9216.7633 -7382.6810 303.0971 -286.0232 -231.4650 30096.2893 -273.6381 -193.5737
ENERGY: 600000 0.5049 6.3088 3.4139 0.0000 -10401.1409 1376.1791 0.0000 0.0000 1717.5127 -7297.2216 297.1096 -9014.7342 -7364.0882 301.5694 -283.8731 -216.5426 30230.4275 -190.6592 -127.2232
ENERGY: 900000 1.6786 4.9187 1.0079 0.0000 -10499.6821 1383.7038 0.0000 0.0000 1741.6711 -7366.7021 301.2887 -9108.3732 -7363.8467 302.0472 -291.8056 -232.4386 29802.8486 -266.2361 -211.4017
ENERGY: 1200000 0.5098 3.6838 1.4241 0.0000 -10590.7348 1458.1329 0.0000 0.0000 1764.0338 -7362.9505 305.1572 -9126.9842 -7371.5800 301.2485 283.6093 380.1595 29725.4520 -204.9458 -145.6663
ENERGY: 1500000 2.0859 3.4690 3.0580 0.0000 -10593.9917 1443.6947 0.0000 0.0000 1716.6698 -7425.0144 296.9637 -9141.6841 -7381.4888 300.0453 -78.5265 -47.0035 30052.6504 -89.6486 -35.8894
TCL: Running FEP window  14: Lambda1 0.34999999999999964 Lambda2 0.29999999999999966 [dLambda -0.04999999999999999]
TCL: Setting parameter firsttimestep to 0
TCL: Setting parameter alchLambda to 0.34999999999999964
Info: NONBONDED TABLE R-SQUARED SPACING: 0.0625
Info: NONBONDED TABLE SIZE: 705 POINTS
TCL: Setting parameter alchLambda2 to 0.29999999999999966
Info: NONBONDED TABLE R-SQUARED SPACING: 0.0625
Info: NONBONDED TABLE SIZE: 705 POINTS
TCL: Running for 1500000 steps
ETITLE: TS BOND ANGLE DIHED IMPRP ELECT VDW BOUNDARY MISC KINETIC TOTAL TEMP POTENTIAL TOTALAVG TEMPAVG PRESSURE GPRESSURE VOLUME PRESSAVG GPRESSAVG
ENERGY: 0 2.0859 3.4690 3.0580 0.0000 -10593.9922 1443.9367 0.0000 0.0000 1715.8387 -7425.6038 296.8200 -9141.4425 -7425.6038 296.8200 -128.1875 -49.3180 30052.6504 -128.1875 -49.3180
ENERGY: 300000 0.7518 3.6294 0.6298 0.0000 -10563.5959 1398.0729 0.0000 0.0000 1795.8383 -7364.6736 310.6590 -9160.5118 -7372.7951 302.0610 -208.6937 -131.1257 29827.4042 -454.3285 -392.7606
ENERGY: 600000 1.2412 4.1209 1.6331 0.0000 -10546.1822 1433.3788 0.0000 0.0000 1735.3136 -7370.4947 300.1889 -9105.8083 -7368.7059 302.1009 -33.1182 37.9892 29998.7071 -254.4572 -178.3964
ENERGY: 900000 0.3865 2.5113 1.5391 0.0000 -10566.9429 1366.4802 0.0000 0.0000 1788.7650 -7407.2608 309.4354 -9196.0257 -7381.5937 301.7424 -547.7923 -401.4888 29654.4783 -198.3648 -114.8622
ENERGY: 1200000 1.5540 10.1017 1.8475 0.0000 -10601.9500 1456.6313 0.0000 0.0000 1738.2141 -7393.6014 300.6907 -9131.8155 -7371.5234 302.3163 183.1625 230.8044 29952.0074 -76.6250 -5.4955
ENERGY: 1500000 0.3376 4.5382 2.0030 0.0000 -10527.2301 1352.7677 0.0000 0.0000 1763.6105 -7403.9731 305.0839 -9167.5836 -7374.1815 302.9895 -636.5166 -604.1692 29938.2779 -66.5225 -1.4826
TCL: Running FEP window  15: Lambda1 0.29999999999999966 Lambda2 0.24999999999999967 [dLambda -0.04999999999999999]
TCL: Setting parameter firsttimestep to 0
TCL: Setting parameter alchLambda to 0.29999999999999966
Info: NONBONDED TABLE R-SQUARED SPACING: 0.0625
Info: NONBONDED TABLE SIZE: 705 POINTS
TCL: Setting parameter alchLambda2 to 0.24999999999999967
Info: NONBONDED TABLE R-SQUARED SPACING: 0.0625
Info: NONBONDED TABLE SIZE: 705 POINTS
TCL: Running for 1500000 steps
ETITLE: TS BOND ANGLE DIHED IMPRP ELECT VDW BOUNDARY MISC KINETIC TOTAL TEMP POTENTIAL TOTALAVG TEMPAVG PRESSURE GPRESSURE VOLUME PRESSAVG GPRESSAVG
ENERGY: 0 0.3376 4.5382 2.0030 0.0000 -10527.2323 1352.4361 0.0000 0.0000 1762.7099 -7405.2075 304.9282 -9167.9174 -7405.2075 304.9282 -692.6156 -609.4810 29938.2779 -692.6156 -609.4810
ENERGY: 300000 0.3405 5.9582 0.8090 0.0000 -10489.6861 1421.8055 0.0000 0.0000 1675.1770 -7385.5958 289.7860 -9060.7728 -7406.6524 299.0101 155.5043 193.9159 29734.8293 -1.4185 52.8085
ENERGY: 600000 0.8835 4.3235 3.7956 0.0000 -10520.5717 1427.4826 0.0000 0.0000 1700.4577 -7383.6287 294.1592 -9084.0864 -7385.5668 299.1126 -77.1770 -22.2168 30053.3338 -123.4018 -69.0664
ENERGY: 900000 0.4592 2.3028 1.2416 0.0000 -10471.1347 1351.1684 0.0000 0.0000 1803.4879 -7312.4749 311.9823 -9115.9628 -7381.0346 301.1127 -360.3690 -268.3027 29892.2181 -251.0709 -187.0503
ENERGY: 1200000 0.0997 4.4610 2.0017 0.0000 -10454.6182 1358.1074 0.0000 0.0000 1678.8328 -7411.1156 290.4184 -9089.9484 -7381.5773 298.8893 -223.8680 -182.8389 29695.8491 -300.3830 -238.6316
ENERGY: 1500000 0.4887 2.9249 2.1624 0.0000 -10557.4306 1431.9333 0.0000 0.0000 1781.1404 -7338.7809 308.1164 -9119.9213 -7375.8652 300.4044 338.2397 380.2092 29439.9036 -241.8889 -184.5842
TCL: Running FEP window  16: Lambda1 0.24999999999999967 Lambda2 0.19999999999999968 [dLambda -0.04999999999999999]
TCL: Setting parameter firsttimestep to 0
TCL: Setting parameter alchLambda to 0.24999999999999967
Info: NONBONDED TABLE R-SQUARED SPACING: 0.0625
Info: NONBONDED TABLE SIZE: 705 POINTS
TCL: Setting parameter alchLambda2 to 0.19999999999999968
Info: NONBONDED TABLE R-SQUARED SPACING: 0.0625
Info: NONBONDED TABLE SIZE: 705 POINTS
TCL: Running for 1500000 steps
ETITLE: TS BOND ANGLE DIHED IMPRP ELECT VDW BOUNDARY MISC KINETIC TOTAL TEMP POTENTIAL TOTALAVG TEMPAVG PRESSURE GPRESSURE VOLUME PRESSAVG GPRESSAVG
ENERGY: 0 0.4887 2.9249 2.1624 0.0000 -10557.4301 1431.9993 0.0000 0.0000 1780.2978 -7339.5570 307.9706 -9119.8548 -7339.5570 307.9706 296.5258 378.9411 29439.9036 296.5258 378.9411
ENERGY: 300000 0.0538 3.6925 0.8072 0.0000 -10517.0080 1349.5858 0.0000 0.0000 1781.7086 -7381.1601 308.2147 -9162.8687 -7373.4475 304.6404 -764.5756 -649.7711 29798.4375 -78.0027 -4.3803
ENERGY: 600000 0.8008 3.1119 1.3000 0.0000 -10603.7838 1435.4820 0.0000 0.0000 1734.5891 -7428.5002 300.0636 -9163.0892 -7378.3635 303.3020 103.1755 159.3064 29541.4671 -0.0363 71.5005
ENERGY: 900000 2.4438 2.4048 2.6187 0.0000 -10463.8755 1328.7591 0.0000 0.0000 1728.3538 -7399.2953 298.9849 -9127.6490 -7383.5970 302.4059 -1200.1537 -1184.4673 30604.5935 -103.7005 -40.9163
ENERGY: 1200000 0.1051 2.5579 2.0465 0.0000 -10664.7179 1467.0261 0.0000 0.0000 1740.6801 -7452.3022 301.1173 -9192.9824 -7393.5184 301.5104 245.9078 343.1001 29490.1821 -44.9464 19.6890
ENERGY: 1500000 0.1649 5.7284 2.3488 0.0000 -10662.0066 1538.2309 0.0000 0.0000 1709.1220 -7406.4116 295.6581 -9115.5336 -7388.1727 300.7214 617.0325 680.6880 30090.4952 -27.3971 39.5350
TCL: Running FEP window  17: Lambda1 0.19999999999999968 Lambda2 0.1499999999999997 [dLambda -0.04999999999999999]
TCL: Setting parameter firsttimestep to 0
TCL: Setting parameter alchLambda to 0.19999999999999968
Info: NONBONDED TABLE R-SQUARED SPACING: 0.0625
Info: NONBONDED TABLE SIZE: 705 POINTS
TCL: Setting parameter alchLambda2 to 0.1499999999999997
Info: NONBONDED TABLE R-SQUARED SPACING: 0.0625
Info: NONBONDED TABLE SIZE: 705 POINTS
TCL: Running for 1500000 steps
ETITLE: TS BOND ANGLE DIHED IMPRP ELECT VDW BOUNDARY MISC KINETIC TOTAL TEMP POTENTIAL TOTALAVG TEMPAVG PRESSURE GPRESSURE VOLUME PRESSAVG GPRESSAVG
ENERGY: 0 0.1649 5.7284 2.3488 0.0000 -10662.0064 1538.0458 0.0000 0.0000 1708.2875 -7407.4309 295.5137 -9115.7184 -7407.4309 295.5137 592.9456 674.9330 30090.4952 592.9456 674.9330
ENERGY: 300000 1.1374 3.4563 1.4644 0.0000 -10450.0220 1297.9457 0.0000 0.0000 1746.9233 -7399.0948 302.1973 -9146.0181 -7389.6948 296.9278 -794.4313 -702.4167 29500.7762 -344.4031 -258.5306
ENERGY: 600000 0.9439 4.3196 1.5578 0.0000 -10494.7346 1401.6126 0.0000 0.0000 1745.8482 -7340.4525 302.0113 -9086.3007 -7380.7746 298.0298 66.1987 143.4090 29416.9406 -82.2120 -6.0894
ENERGY: 900000 0.4592 2.6788 2.2583 0.0000 -10474.9478 1375.7017 0.0000 0.0000 1769.2586 -7324.5912 306.0610 -9093.8498 -7371.6013 299.6477 -135.0736 -82.1163 29728.0535 -147.2139 -71.5379
ENERGY: 1200000 1.8629 3.1054 1.5631 0.0000 -10424.2188 1332.9836 0.0000 0.0000 1731.1586 -7353.5453 299.4701 -9084.7039 -7372.7976 300.9962 -499.1612 -438.3274 29599.5465 -136.3625 -65.4977
ENERGY: 1500000 0.3823 6.2208 1.5132 0.0000 -10660.0223 1508.7407 0.0000 0.0000 1753.4160 -7389.7494 303.3204 -9143.1654 -7381.8265 300.6323 701.8065 852.8713 29468.8063 -102.8472 -23.9681
TCL: Running FEP window  18: Lambda1 0.1499999999999997 Lambda2 0.09999999999999969 [dLambda -0.05 ]
TCL: Setting parameter firsttimestep to 0
TCL: Setting parameter alchLambda to 0.1499999999999997
Info: NONBONDED TABLE R-SQUARED SPACING: 0.0625
Info: NONBONDED TABLE SIZE: 705 POINTS
TCL: Setting parameter alchLambda2 to 0.09999999999999969
Info: NONBONDED TABLE R-SQUARED SPACING: 0.0625
Info: NONBONDED TABLE SIZE: 705 POINTS
TCL: Running for 1500000 steps
ETITLE: TS BOND ANGLE DIHED IMPRP ELECT VDW BOUNDARY MISC KINETIC TOTAL TEMP POTENTIAL TOTALAVG TEMPAVG PRESSURE GPRESSURE VOLUME PRESSAVG GPRESSAVG
ENERGY: 0 0.3823 6.2208 1.5132 0.0000 -10660.0208 1508.7619 0.0000 0.0000 1752.5714 -7390.5714 303.1743 -9143.1428 -7390.5714 303.1743 758.1564 853.2046 29468.8063 758.1564 853.2046
ENERGY: 300000 1.0548 2.6565 3.0422 0.0000 -10582.4650 1391.6105 0.0000 0.0000 1703.2189 -7480.8822 294.6369 -9184.1011 -7365.7005 301.2410 -378.5792 -319.6726 29621.2739 -81.7612 -9.3303
ENERGY: 600000 2.0211 6.2666 1.1265 0.0000 -10484.0858 1406.3953 0.0000 0.0000 1767.6019 -7300.6745 305.7744 -9068.2763 -7352.3303 303.1152 -66.4317 -24.6930 30080.1112 156.8907 213.9884
ENERGY: 900000 0.4516 2.7639 1.0741 0.0000 -10580.0639 1424.6203 0.0000 0.0000 1697.7439 -7453.4101 293.6898 -9151.1540 -7371.1011 300.0863 -147.6193 -73.6648 29900.1614 53.4135 117.4246
ENERGY: 1200000 1.1627 7.2314 1.0583 0.0000 -10583.1677 1465.8741 0.0000 0.0000 1819.3587 -7288.4824 314.7277 -9107.8411 -7370.3620 300.6289 420.3378 452.5836 29805.8647 138.3597 192.7475
ENERGY: 1500000 0.8450 5.2057 2.4871 0.0000 -10627.0283 1505.3337 0.0000 0.0000 1701.8292 -7411.3277 294.3965 -9113.1569 -7378.2237 299.7353 756.4623 897.1121 29532.4513 143.7008 204.2948
TCL: Running FEP window  19: Lambda1 0.09999999999999969 Lambda2 0.049999999999999684 [dLambda -0.05 ]
TCL: Setting parameter firsttimestep to 0
TCL: Setting parameter alchLambda to 0.09999999999999969
Info: NONBONDED TABLE R-SQUARED SPACING: 0.0625
Info: NONBONDED TABLE SIZE: 705 POINTS
TCL: Setting parameter alchLambda2 to 0.049999999999999684
Info: NONBONDED TABLE R-SQUARED SPACING: 0.0625
Info: NONBONDED TABLE SIZE: 705 POINTS
TCL: Running for 1500000 steps
ETITLE: TS BOND ANGLE DIHED IMPRP ELECT VDW BOUNDARY MISC KINETIC TOTAL TEMP POTENTIAL TOTALAVG TEMPAVG PRESSURE GPRESSURE VOLUME PRESSAVG GPRESSAVG
ENERGY: 0 0.8450 5.2057 2.4871 0.0000 -10627.0288 1505.5106 0.0000 0.0000 1700.9484 -7412.0320 294.2441 -9112.9805 -7412.0320 294.2441 807.5877 899.4706 29532.4513 807.5877 899.4706
ENERGY: 300000 0.2989 5.9481 0.7720 0.0000 -10582.7623 1451.7218 0.0000 0.0000 1717.8237 -7406.1977 297.1634 -9124.0214 -7387.9530 297.7031 513.0254 598.0706 29249.1879 324.1920 395.8112
ENERGY: 600000 0.0890 2.8110 1.4251 0.0000 -10486.1896 1384.8525 0.0000 0.0000 1740.8121 -7356.1999 301.1401 -9097.0120 -7379.8778 299.5616 -118.7644 17.1114 29673.1027 230.6260 316.6882
ENERGY: 900000 0.4708 4.3894 3.9439 0.0000 -10579.7852 1430.4316 0.0000 0.0000 1787.4425 -7353.1070 309.2066 -9140.5495 -7387.0904 301.3552 215.3846 317.1503 29401.1927 239.9509 317.5009
ENERGY: 1200000 1.0080 6.7137 2.2872 0.0000 -10529.4864 1421.3788 0.0000 0.0000 1698.6472 -7399.4515 293.8460 -9098.0987 -7383.7141 300.7334 -165.8929 -86.1121 29996.2155 137.7823 209.7536
ENERGY: 1500000 1.1861 8.6916 4.6516 0.0000 -10387.5162 1332.9363 0.0000 0.0000 1731.6434 -7308.4071 299.5540 -9040.0505 -7376.4599 300.7099 -511.6848 -448.6108 29874.4480 56.1650 125.1631
TCL: Running FEP window  20: Lambda1 0.049999999999999684 Lambda2 0.0    [dLambda -0.049999999999999684]
TCL: Setting parameter firsttimestep to 0
TCL: Setting parameter alchLambda to 0.049999999999999684
Info: NONBONDED TABLE R-SQUARED SPACING: 0.0625
Info: NONBONDED TABLE SIZE: 705 POINTS
TCL: Setting parameter alchLambda2 to 0.0
Info: NONBONDED TABLE R-SQUARED SPACING: 0.0625
Info: NONBONDED TABLE SIZE: 705 POINTS
TCL: Running for 1500000 steps
ETITLE: TS BOND ANGLE DIHED IMPRP ELECT VDW BOUNDARY MISC KINETIC TOTAL TEMP POTENTIAL TOTALAVG TEMPAVG PRESSURE GPRESSURE VOLUME PRESSAVG GPRESSAVG
ENERGY: 0 1.1860 8.6917 4.6516 0.0000 -10387.5163 1332.9997 0.0000 0.0000 1730.7882 -7309.1991 299.4061 -9039.9872 -7309.1991 299.4061 -542.4363 -447.0530 29874.4480 -542.4363 -447.0530
ENERGY: 300000 0.7190 2.2055 1.3044 0.0000 -10480.8919 1345.2241 0.0000 0.0000 1753.7774 -7377.6614 303.3829 -9131.4389 -7359.9915 304.2593 -768.1986 -713.6313 30131.6557 -341.2546 -287.5268
ENERGY: 600000 1.8979 2.9471 1.4112 0.0000 -10638.6572 1497.8534 0.0000 0.0000 1731.7609 -7402.7867 299.5743 -9134.5476 -7363.1252 302.7198 620.0870 711.6335 29492.1000 12.3921 77.8260
ENERGY: 900000 0.0360 3.6733 2.4808 0.0000 -10487.0460 1399.5223 0.0000 0.0000 1739.1405 -7342.1931 300.8509 -9081.3336 -7359.1979 301.6702 -304.8060 -202.1530 30256.1531 6.5096 85.5811
ENERGY: 1200000 1.0975 4.1708 2.5572 0.0000 -10517.4258 1406.4101 0.0000 0.0000 1763.9503 -7339.2399 305.1427 -9103.1902 -7363.8402 301.8858 140.7353 250.7651 29285.7250 72.2132 149.6353
ENERGY: 1500000 0.2503 1.9022 1.0730 0.0000 -10507.5095 1415.7269 0.0000 0.0000 1707.6861 -7380.8710 295.4097 -9088.5571 -7373.6434 300.6834 -421.0194 -334.6959 30467.9048 76.7289 155.0756
TCL: Exiting due to exit command.
