Info: SIMULATION PARAMETERS:
Info: TIMESTEP               2
Info: NUMBER OF STEPS        0
Info: STEPS PER CYCLE        10
Info: PERIODIC CELL BASIS 1  30.9442 0 0
Info: PERIODIC CELL BASIS 2  0 31.2986 0
Info: PERIODIC CELL BASIS 3  0 0 31.3914
Info: PERIODIC CELL CENTER   0 0 0
Info: WRAPPING WATERS AROUND PERIODIC BOUNDARIES ON OUTPUT.
Info: WRAPPING ALL CLUSTERS AROUND PERIODIC BOUNDARIES ON OUTPUT.
Info: FIRST LDB TIMESTEP     50
Info: LAST LDB TIMESTEP     -1
Info: HOM BACKGROUND SCALING 1
Info: PME BACKGROUND SCALING 1
Info: MIN ATOMS PER PATCH    40
Info: EMPTY PATCH LOAD       40 ATOMS
Info: VELOCITY FILE          mobley_7326982_equil.vel
Info: CENTER OF MASS MOVING INITIALLY? NO
Info: DIELECTRIC             1
Info: EXCLUDE                SCALED ONE-FOUR
Info: 1-4 ELECTROSTATICS SCALED BY 0.833333
Info: MODIFIED 1-4 VDW PARAMETERS WILL BE USED
Info: DCD FILENAME           mobley_7326982_prod.dcd
Info: DCD FREQUENCY          100000
Info: DCD FIRST STEP         100000
Info: DCD FILE WILL CONTAIN UNIT CELL DATA
Info: XST FILENAME           mobley_7326982_prod.xst
Info: XST FREQUENCY          100000
Info: NO VELOCITY DCD OUTPUT
Info: NO FORCE DCD OUTPUT
Info: OUTPUT FILENAME        mobley_7326982_prod
Info: BINARY OUTPUT FILES WILL BE USED
Info: RESTART FILENAME       mobley_7326982_prod.restart
Info: RESTART FREQUENCY      100000
Info: BINARY RESTART FILES WILL BE USED
Info: CUTOFF                 9
Info: PAIRLIST DISTANCE      11
Info: PAIRLIST SHRINK RATE   0.01
Info: PAIRLIST GROW RATE     0.01
Info: PAIRLIST TRIGGER       0.3
Info: PAIRLISTS PER CYCLE    2
Info: PAIRLISTS ENABLED
Info: MARGIN                 2
Info: HYDROGEN GROUP CUTOFF  2.5
Info: PATCH DIMENSION        15.5
Info: ENERGY OUTPUT STEPS    100000
Info: ENERGY EVALUATION STEPS    100000
Info: OUTPUT ENERGY PRECISION 4
Info: CROSSTERM ENERGY INCLUDED IN DIHEDRAL
Info: TIMING OUTPUT STEPS    1000000
Info: PRESSURE OUTPUT STEPS  100000
Info: ALCHEMICAL FEP ON
Info: FEP CURRENT LAMBDA VALUE     1
Info: FEP COMPARISON LAMBDA VALUE  0.95
Info: FEP INTRA-ALCHEMICAL NON-BONDED INTERACTIONS WILL BE RETAINED
Info: FEP INTRA-ALCHEMICAL BONDED INTERACTIONS WILL BE RETAINED
Info: FEP VDW SHIFTING COEFFICIENT 5
Info: FEP ELEC. ACTIVE FOR ANNIHILATED PARTICLES BETWEEN LAMBDA = 0 AND LAMBDA = 0.5
Info: FEP ELEC. ACTIVE FOR EXNIHILATED PARTICLES BETWEEN LAMBDA = 0.5 AND LAMBDA = 1
Info: FEP VDW ACTIVE FOR ANNIHILATED PARTICLES BETWEEN LAMBDA = 0 AND LAMBDA = 1
Info: FEP VDW ACTIVE FOR EXNIHILATED PARTICLES BETWEEN LAMBDA = 0 AND LAMBDA = 1
Info: FEP BOND ACTIVE FOR ANNIHILATED PARTICLES BETWEEN LAMBDA = 1 AND LAMBDA = 1
Info: FEP BOND ACTIVE FOR EXNIHILATED PARTICLES BETWEEN LAMBDA = 0 AND LAMBDA = 0
Info: LANGEVIN DYNAMICS ACTIVE
Info: LANGEVIN TEMPERATURE   300
Info: LANGEVIN USING BBK INTEGRATOR
Info: LANGEVIN DAMPING COEFFICIENT IS 1 INVERSE PS
Info: LANGEVIN DYNAMICS APPLIED TO HYDROGENS
Info: LANGEVIN PISTON PRESSURE CONTROL ACTIVE
Info:        TARGET PRESSURE IS 1.01325 BAR
Info:     OSCILLATION PERIOD IS 50 FS
Info:             DECAY TIME IS 25 FS
Info:     PISTON TEMPERATURE IS 300 K
Info:       PRESSURE CONTROL IS GROUP-BASED
Info:    INITIAL STRAIN RATE IS -0.000358121 -0.000358121 -0.000358121
Info:       CELL FLUCTUATION IS ISOTROPIC
Info: PARTICLE MESH EWALD (PME) ACTIVE
Info: PME TOLERANCE               1e-06
Info: PME EWALD COEFFICIENT       0.348832
Info: PME INTERPOLATION ORDER     4
Info: PME GRID DIMENSIONS         32 32 32
Info: PME MAXIMUM GRID SPACING    1
Info: PME CALCULATION WILL BE PERFORMED ON GPU
Info: FULL ELECTROSTATIC EVALUATION FREQUENCY      2
Info: USING VERLET I (r-RESPA) MTS SCHEME.
Info: C1 SPLITTING OF LONG RANGE ELECTROSTATICS
Info: PLACING ATOMS IN PATCHES BY HYDROGEN GROUPS
Info: RIGID BONDS TO HYDROGEN : ALL
Info:         ERROR TOLERANCE : 1e-08
Info:          MAX ITERATIONS : 100
Info: RIGID WATER USING SETTLE ALGORITHM
Info: RANDOM NUMBER SEED     1742573188
Info: USE HYDROGEN BONDS?    NO
Info: Using AMBER format force field!
Info: AMBER PARM FILE        mobley_7326982.prmtop
Info: COORDINATE PDB         mobley_7326982.pdb
Info: Exclusions will be read from PARM file!
Info: SCNB (VDW SCALING)     2
Info: USING ARITHMETIC MEAN TO COMBINE L-J SIGMA PARAMETERS
Info: BINARY COORDINATES     mobley_7326982_equil.coor
Info: SUMMARY OF PARAMETERS:
Info: 7 BONDS
Info: 7 ANGLES
Info:   7 HARMONIC
Info:   0 COSINE-BASED
Info: 5 DIHEDRAL
Info: 0 IMPROPER
Info: 0 CROSSTERM
Info: 0 VDW
Info: 28 VDW_PAIRS
Info: 0 NBTHOLE_PAIRS
Info: To read alchdata from file: mobley_7326982.pdb
Info: To read alchflag data from column: 5
Info: STRUCTURE SUMMARY:
Info: 2940 ATOMS
Info: 2939 BONDS
Info: 19 ANGLES
Info: 21 DIHEDRALS
Info: 0 IMPROPERS
Info: 0 CROSSTERMS
Info: 2979 EXCLUSIONS
Info: 2936 RIGID BONDS
Info: ALCH: 0 ATOMS TO DISAPPEAR IN FINAL STATE
Info: ALCH: 12 ATOMS TO APPEAR IN FINAL STATE
Info: 5884 DEGREES OF FREEDOM
Info: 980 HYDROGEN GROUPS
Info: 4 ATOMS IN LARGEST HYDROGEN GROUP
Info: 980 MIGRATION GROUPS
Info: 4 ATOMS IN LARGEST MIGRATION GROUP
Info: TOTAL MASS = 17643.7 amu
Info: TOTAL CHARGE = -0.000199985 e
Info: MASS DENSITY = 0.963682 g/cm^3
Info: ATOM DENSITY = 0.0967012 atoms/A^3
Info: ADDED 0 IMPLICIT EXCLUSIONS
Info: NONBONDED TABLE R-SQUARED SPACING: 0.0625
Info: NONBONDED TABLE SIZE: 705 POINTS
Info: REMOVING COM VELOCITY -0.0318578 0.0948475 0.0327848
Info: Use 3D box decompostion in PME FFT.
Info: Updated CUDA force table with 4096 elements.
Info: Updated CUDA LJ table with 7 x 7 elements.
Info: Found 15 unique exclusion lists needing 28 bytes
TCL: Running for 1500000 steps
ETITLE: TS BOND ANGLE DIHED IMPRP ELECT VDW BOUNDARY MISC KINETIC TOTAL TEMP POTENTIAL TOTALAVG TEMPAVG PRESSURE GPRESSURE VOLUME PRESSAVG GPRESSAVG
ENERGY: 0 3.1808 8.3563 0.4838 0.0000 -10658.6886 1438.5362 0.0000 0.0000 1799.7621 -7408.3694 307.8455 -9208.1315 -7408.3694 307.8455 74.4757 150.4175 30402.9279 74.4757 150.4175
ENERGY: 300000 1.2818 5.1634 0.1158 0.0000 -10631.5472 1419.9074 0.0000 0.0000 1732.5732 -7472.5056 296.3530 -9205.0789 -7452.9710 300.2831 8.3444 58.5941 30268.7753 -339.0701 -267.8984
ENERGY: 600000 1.0372 4.4336 0.5321 0.0000 -10499.9431 1320.7019 0.0000 0.0000 1753.2574 -7419.9810 299.8910 -9173.2384 -7461.7994 299.1529 -751.1143 -647.2553 30463.3172 -297.3951 -227.4353
ENERGY: 900000 1.1032 4.3334 0.2889 0.0000 -10576.5442 1402.1055 0.0000 0.0000 1765.9733 -7402.7399 302.0660 -9168.7132 -7458.4097 299.7496 -110.3192 -35.1809 30485.2390 -233.0550 -161.3825
ENERGY: 1200000 0.9590 2.4421 1.1106 0.0000 -10675.4334 1392.2531 0.0000 0.0000 1718.5456 -7560.1230 293.9536 -9278.6686 -7484.9509 298.5440 -698.9431 -568.1552 30725.7376 -228.2324 -148.0773
ENERGY: 1500000 0.5100 3.6115 0.5960 0.0000 -10635.2900 1404.9739 0.0000 0.0000 1738.7649 -7486.8338 297.4121 -9225.5986 -7474.1894 299.2007 -349.2936 -284.1090 30519.5992 -251.4880 -174.2120
TCL: Running FEP window   2: Lambda1 0.95   Lambda2 0.8999999999999999 [dLambda -0.050000000000000044]
TCL: Setting parameter firsttimestep to 0
TCL: Setting parameter alchLambda to 0.95
Info: NONBONDED TABLE R-SQUARED SPACING: 0.0625
Info: NONBONDED TABLE SIZE: 705 POINTS
TCL: Setting parameter alchLambda2 to 0.8999999999999999
Info: NONBONDED TABLE R-SQUARED SPACING: 0.0625
Info: NONBONDED TABLE SIZE: 705 POINTS
TCL: Running for 1500000 steps
ETITLE: TS BOND ANGLE DIHED IMPRP ELECT VDW BOUNDARY MISC KINETIC TOTAL TEMP POTENTIAL TOTALAVG TEMPAVG PRESSURE GPRESSURE VOLUME PRESSAVG GPRESSAVG
ENERGY: 0 0.5100 3.6115 0.5960 0.0000 -10633.6490 1404.3596 0.0000 0.0000 1737.9209 -7486.6510 297.2677 -9224.5719 -7486.6510 297.2677 -387.6049 -298.9555 30519.5992 -387.6049 -298.9555
ENERGY: 300000 0.1711 7.0230 0.5231 0.0000 -10582.0377 1376.2310 0.0000 0.0000 1745.0642 -7453.0254 298.4895 -9198.0896 -7472.3648 299.0685 -699.9968 -573.8912 30792.4673 -442.3167 -393.8615
ENERGY: 600000 0.6955 4.5772 2.0658 0.0000 -10587.3419 1413.5704 0.0000 0.0000 1702.6202 -7463.8128 291.2296 -9166.4330 -7494.1697 299.3610 -24.9101 -13.6098 30352.6098 -303.5546 -258.1461
ENERGY: 900000 1.4596 6.2481 0.9749 0.0000 -10773.5280 1462.9623 0.0000 0.0000 1739.8776 -7562.0056 297.6024 -9301.8832 -7497.5143 297.7286 275.3173 321.4876 29807.5288 -125.4690 -71.4361
ENERGY: 1200000 3.0606 4.5147 1.9702 0.0000 -10622.9299 1442.5519 0.0000 0.0000 1719.9379 -7450.8946 294.1917 -9170.8325 -7486.0768 298.4966 -18.1551 40.0122 30649.2319 -96.1754 -41.3877
ENERGY: 1500000 0.4790 3.0529 0.3671 0.0000 -10617.3254 1430.4927 0.0000 0.0000 1750.0770 -7432.8568 299.3470 -9182.9338 -7474.3224 299.2834 265.9056 381.5016 30045.7265 -73.9700 -12.9596
TCL: Running FEP window   3: Lambda1 0.8999999999999999 Lambda2 0.8499999999999999 [dLambda -0.050000000000000044]
TCL: Setting parameter firsttimestep to 0
TCL: Setting parameter alchLambda to 0.8999999999999999
Info: NONBONDED TABLE R-SQUARED SPACING: 0.0625
Info: NONBONDED TABLE SIZE: 705 POINTS
TCL: Setting parameter alchLambda2 to 0.8499999999999999
Info: NONBONDED TABLE R-SQUARED SPACING: 0.0625
Info: NONBONDED TABLE SIZE: 705 POINTS
TCL: Running for 1500000 steps
ETITLE: TS BOND ANGLE DIHED IMPRP ELECT VDW BOUNDARY MISC KINETIC TOTAL TEMP POTENTIAL TOTALAVG TEMPAVG PRESSURE GPRESSURE VOLUME PRESSAVG GPRESSAVG
ENERGY: 0 0.4790 3.0529 0.3671 0.0000 -10615.2180 1429.4606 0.0000 0.0000 1749.1737 -7432.6848 299.1925 -9181.8585 -7432.6848 299.1925 303.1232 369.3237 30045.7265 303.1232 369.3237
ENERGY: 300000 2.5780 5.2276 0.4636 0.0000 -10611.4440 1405.1541 0.0000 0.0000 1782.7519 -7415.2689 304.9360 -9198.0208 -7464.9909 299.2163 -526.5761 -467.0703 30906.9054 -17.5421 42.4547
ENERGY: 600000 0.4176 3.3431 0.3489 0.0000 -10716.7898 1439.8318 0.0000 0.0000 1784.6852 -7488.1631 305.2666 -9272.8484 -7488.6922 299.8540 33.7163 29.2596 30409.6761 119.0282 164.7971
ENERGY: 900000 0.6915 4.5488 0.3914 0.0000 -10817.3498 1526.5302 0.0000 0.0000 1758.6294 -7526.5583 300.8099 -9285.1878 -7486.2914 300.6149 627.1980 742.5520 29642.2684 134.5407 195.3350
ENERGY: 1200000 0.0667 8.2374 0.4040 0.0000 -10682.7609 1460.9167 0.0000 0.0000 1749.5961 -7463.5400 299.2647 -9213.1361 -7487.3938 300.2081 291.0999 381.1989 30039.6935 158.5421 226.5305
ENERGY: 1500000 0.0809 5.5296 0.6056 0.0000 -10667.0818 1385.1834 0.0000 0.0000 1708.9021 -7566.7802 292.3041 -9275.6823 -7494.7817 299.0431 -601.7221 -571.6448 30488.9204 111.5661 175.1457
TCL: Running FEP window   4: Lambda1 0.8499999999999999 Lambda2 0.7999999999999998 [dLambda -0.050000000000000044]
TCL: Setting parameter firsttimestep to 0
TCL: Setting parameter alchLambda to 0.8499999999999999
Info: NONBONDED TABLE R-SQUARED SPACING: 0.0625
Info: NONBONDED TABLE SIZE: 705 POINTS
TCL: Setting parameter alchLambda2 to 0.7999999999999998
Info: NONBONDED TABLE R-SQUARED SPACING: 0.0625
Info: NONBONDED TABLE SIZE: 705 POINTS
TCL: Running for 1500000 steps
ETITLE: TS BOND ANGLE DIHED IMPRP ELECT VDW BOUNDARY MISC KINETIC TOTAL TEMP POTENTIAL TOTALAVG TEMPAVG PRESSURE GPRESSURE VOLUME PRESSAVG GPRESSAVG
ENERGY: 0 0.0809 5.5296 0.6056 0.0000 -10665.5481 1384.4770 0.0000 0.0000 1708.0072 -7566.8478 292.1510 -9274.8550 -7566.8478 292.1510 -665.5493 -583.6089 30488.9204 -665.5493 -583.6089
ENERGY: 300000 1.1818 5.5488 0.2990 0.0000 -10635.1686 1454.4899 0.0000 0.0000 1773.9955 -7399.6536 303.4382 -9173.6491 -7474.9862 299.8912 360.3856 408.9588 30262.7985 -324.9302 -279.7000
ENERGY: 600000 2.5376 5.5325 0.7949 0.0000 -10599.5956 1369.9999 0.0000 0.0000 1817.8258 -7402.9049 310.9353 -9220.7307 -7453.0539 301.8441 -672.7703 -676.5792 30931.1070 -445.9467 -400.2479
ENERGY: 900000 1.8108 2.3902 0.1860 0.0000 -10608.3409 1406.8569 0.0000 0.0000 1745.8609 -7451.2361 298.6258 -9197.0970 -7464.0136 301.0689 -196.5467 -117.7662 30320.8426 -339.2891 -295.2213
ENERGY: 1200000 1.3614 9.1673 0.9091 0.0000 -10638.1555 1373.5963 0.0000 0.0000 1766.0299 -7487.0915 302.0757 -9253.1213 -7466.2197 300.4645 -522.2462 -500.6925 30365.4989 -303.9567 -256.3982
ENERGY: 1500000 2.0123 6.1210 0.7442 0.0000 -10667.7929 1411.5221 0.0000 0.0000 1763.8289 -7483.5644 301.6992 -9247.3933 -7467.1950 300.5666 -28.0457 18.7563 29892.5582 -271.7423 -223.1768
TCL: Running FEP window   5: Lambda1 0.7999999999999998 Lambda2 0.7499999999999998 [dLambda -0.050000000000000044]
TCL: Setting parameter firsttimestep to 0
TCL: Setting parameter alchLambda to 0.7999999999999998
Info: NONBONDED TABLE R-SQUARED SPACING: 0.0625
Info: NONBONDED TABLE SIZE: 705 POINTS
TCL: Setting parameter alchLambda2 to 0.7499999999999998
Info: NONBONDED TABLE R-SQUARED SPACING: 0.0625
Info: NONBONDED TABLE SIZE: 705 POINTS
TCL: Running for 1500000 steps
ETITLE: TS BOND ANGLE DIHED IMPRP ELECT VDW BOUNDARY MISC KINETIC TOTAL TEMP POTENTIAL TOTALAVG TEMPAVG PRESSURE GPRESSURE VOLUME PRESSAVG GPRESSAVG
ENERGY: 0 2.0123 6.1210 0.7442 0.0000 -10666.6582 1411.4624 0.0000 0.0000 1762.9563 -7483.3621 301.5500 -9246.3183 -7483.3621 301.5500 -75.5275 14.3023 29892.5582 -75.5275 14.3023
ENERGY: 300000 0.6712 3.6910 0.7384 0.0000 -10585.3927 1434.0501 0.0000 0.0000 1762.1557 -7384.0863 301.4130 -9146.2420 -7453.5797 302.5501 151.4735 253.5501 30439.6150 134.0066 192.4690
ENERGY: 600000 1.0201 4.0969 0.6723 0.0000 -10803.9917 1475.2063 0.0000 0.0000 1766.7163 -7556.2798 302.1931 -9322.9961 -7471.3226 302.2695 507.6270 593.3137 29551.6428 -24.3357 44.3740
ENERGY: 900000 0.9757 5.9782 0.2658 0.0000 -10677.0841 1416.6734 0.0000 0.0000 1718.2693 -7534.9217 293.9063 -9253.1910 -7479.5718 301.7559 -204.3188 -182.7102 30108.7340 15.7183 83.1337
ENERGY: 1200000 0.7233 4.0141 2.4428 0.0000 -10735.2363 1452.1007 0.0000 0.0000 1760.6869 -7515.2684 301.1618 -9275.9554 -7482.8542 301.2741 -155.6754 -209.6461 30586.7735 -89.6739 -31.2666
ENERGY: 1500000 1.0286 5.8710 0.3125 0.0000 -10707.3115 1507.8298 0.0000 0.0000 1773.6828 -7418.5868 303.3847 -9192.2696 -7481.5852 301.5519 683.0353 737.3352 30360.3152 -124.9879 -62.8961
TCL: Running FEP window   6: Lambda1 0.7499999999999998 Lambda2 0.6999999999999997 [dLambda -0.050000000000000044]
TCL: Setting parameter firsttimestep to 0
TCL: Setting parameter alchLambda to 0.7499999999999998
Info: NONBONDED TABLE R-SQUARED SPACING: 0.0625
Info: NONBONDED TABLE SIZE: 705 POINTS
TCL: Setting parameter alchLambda2 to 0.6999999999999997
Info: NONBONDED TABLE R-SQUARED SPACING: 0.0625
Info: NONBONDED TABLE SIZE: 705 POINTS
TCL: Running for 1500000 steps
ETITLE: TS BOND ANGLE DIHED IMPRP ELECT VDW BOUNDARY MISC KINETIC TOTAL TEMP POTENTIAL TOTALAVG TEMPAVG PRESSURE GPRESSURE VOLUME PRESSAVG GPRESSAVG
ENERGY: 0 1.0286 5.8710 0.3125 0.0000 -10705.3256 1507.2493 0.0000 0.0000 1772.8298 -7418.0344 303.2388 -9190.8642 -7418.0344 303.2388 649.3228 732.2108 30360.3152 649.3228 732.2108
ENERGY: 300000 1.8686 3.7939 0.6296 0.0000 -10588.6731 1369.0378 0.0000 0.0000 1686.1067 -7527.2365 288.4050 -9213.3431 -7483.5843 297.6092 -446.3643 -453.1180 30117.2577 -238.6206 -187.3319
ENERGY: 600000 1.1262 3.7346 0.9417 0.0000 -10754.1151 1501.3361 0.0000 0.0000 1767.2887 -7479.6877 302.2910 -9246.9764 -7471.4502 299.9621 466.4489 590.9822 30231.4630 -52.3735 16.0517
ENERGY: 900000 0.0474 6.9415 1.3489 0.0000 -10747.8213 1518.0768 0.0000 0.0000 1728.1592 -7493.2476 295.5980 -9221.4067 -7475.0496 299.8722 690.0810 806.0275 30291.7703 19.1374 83.6819
ENERGY: 1200000 1.3514 9.9366 0.7192 0.0000 -10536.2354 1369.5856 0.0000 0.0000 1795.7220 -7358.9205 307.1545 -9154.6426 -7465.7521 300.3754 -251.2374 -210.3397 30521.1425 -91.0966 -21.0798
ENERGY: 1500000 0.8079 4.5413 0.3730 0.0000 -10782.0745 1426.0080 0.0000 0.0000 1734.8490 -7615.4953 296.7423 -9350.3443 -7471.0637 300.4312 -218.9507 -167.7838 29822.1540 -154.2894 -92.7396
TCL: Running FEP window   7: Lambda1 0.6999999999999997 Lambda2 0.6499999999999997 [dLambda -0.050000000000000044]
TCL: Setting parameter firsttimestep to 0
TCL: Setting parameter alchLambda to 0.6999999999999997
Info: NONBONDED TABLE R-SQUARED SPACING: 0.0625
Info: NONBONDED TABLE SIZE: 705 POINTS
TCL: Setting parameter alchLambda2 to 0.6499999999999997
Info: NONBONDED TABLE R-SQUARED SPACING: 0.0625
Info: NONBONDED TABLE SIZE: 705 POINTS
TCL: Running for 1500000 steps
ETITLE: TS BOND ANGLE DIHED IMPRP ELECT VDW BOUNDARY MISC KINETIC TOTAL TEMP POTENTIAL TOTALAVG TEMPAVG PRESSURE GPRESSURE VOLUME PRESSAVG GPRESSAVG
ENERGY: 0 0.8079 4.5413 0.3730 0.0000 -10780.2465 1425.5517 0.0000 0.0000 1733.9524 -7615.0201 296.5889 -9348.9725 -7615.0201 296.5889 -257.4077 -174.7944 29822.1540 -257.4077 -174.7944
ENERGY: 300000 0.4464 3.4026 1.4765 0.0000 -10653.7672 1369.6172 0.0000 0.0000 1779.0274 -7499.7972 304.2989 -9278.8246 -7487.1421 302.3060 -542.7064 -445.3555 30008.5448 -348.3393 -284.4941
ENERGY: 600000 1.0577 2.9704 0.4794 0.0000 -10754.8056 1453.1706 0.0000 0.0000 1806.3544 -7490.7731 308.9731 -9297.1274 -7510.0267 301.9874 355.1800 385.6026 29641.4508 -116.1040 -44.3543
ENERGY: 900000 2.1633 5.9935 0.7314 0.0000 -10780.0520 1493.4639 0.0000 0.0000 1848.4873 -7429.2126 316.1799 -9277.6999 -7501.3925 301.9059 392.9816 491.9335 30141.9410 -100.7522 -34.1147
ENERGY: 1200000 4.3304 7.3271 0.3081 0.0000 -10602.8070 1332.1902 0.0000 0.0000 1790.0667 -7468.5846 306.1871 -9258.6513 -7493.7703 302.2487 -941.3440 -900.5020 30187.1984 -173.7385 -112.2200
ENERGY: 1500000 1.3686 4.4038 0.9624 0.0000 -10670.1031 1428.3362 0.0000 0.0000 1768.6390 -7466.3931 302.5220 -9235.0321 -7488.0365 302.0818 12.9769 47.5859 30209.3347 -174.1993 -111.2918
TCL: Running FEP window   8: Lambda1 0.6499999999999997 Lambda2 0.5999999999999996 [dLambda -0.050000000000000044]
TCL: Setting parameter firsttimestep to 0
TCL: Setting parameter alchLambda to 0.6499999999999997
Info: NONBONDED TABLE R-SQUARED SPACING: 0.0625
Info: NONBONDED TABLE SIZE: 705 POINTS
TCL: Setting parameter alchLambda2 to 0.5999999999999996
Info: NONBONDED TABLE R-SQUARED SPACING: 0.0625
Info: NONBONDED TABLE SIZE: 705 POINTS
TCL: Running for 1500000 steps
ETITLE: TS BOND ANGLE DIHED IMPRP ELECT VDW BOUNDARY MISC KINETIC TOTAL TEMP POTENTIAL TOTALAVG TEMPAVG PRESSURE GPRESSURE VOLUME PRESSAVG GPRESSAVG
ENERGY: 0 1.3686 4.4038 0.9624 0.0000 -10668.8608 1428.4734 0.0000 0.0000 1767.7769 -7465.8757 302.3745 -9233.6526 -7465.8757 302.3745 -32.5054 47.6742 30209.3347 -32.5054 47.6742
ENERGY: 300000 1.3416 3.4593 0.7775 0.0000 -10784.4862 1512.7441 0.0000 0.0000 1720.3256 -7545.8381 294.2581 -9266.1636 -7470.1341 299.4624 639.3324 687.0143 30096.6673 319.6187 414.8269
ENERGY: 600000 0.2897 5.6143 0.6434 0.0000 -10717.1427 1465.3907 0.0000 0.0000 1854.1127 -7391.0918 317.1421 -9245.2045 -7447.5152 302.4337 321.7966 342.1281 30213.0543 178.9272 243.7917
ENERGY: 900000 0.0539 2.9153 0.7682 0.0000 -10592.6024 1353.5018 0.0000 0.0000 1748.6099 -7486.7533 299.0960 -9235.3632 -7466.2858 300.7067 -465.8253 -393.0107 29933.6257 153.4341 217.6622
ENERGY: 1200000 0.3627 5.6934 0.5977 0.0000 -10737.6554 1459.4940 0.0000 0.0000 1778.8927 -7492.6149 304.2758 -9271.5076 -7466.2903 301.2250 414.7044 408.3149 29782.0003 81.5239 142.2516
ENERGY: 1500000 3.0822 1.8180 0.6694 0.0000 -10622.1710 1379.6206 0.0000 0.0000 1780.0934 -7456.8874 304.4812 -9236.9808 -7469.4655 301.1763 -373.8852 -312.1067 30128.2601 19.7744 78.7168
TCL: Running FEP window   9: Lambda1 0.5999999999999996 Lambda2 0.5499999999999996 [dLambda -0.050000000000000044]
TCL: Setting parameter firsttimestep to 0
TCL: Setting parameter alchLambda to 0.5999999999999996
Info: NONBONDED TABLE R-SQUARED SPACING: 0.0625
Info: NONBONDED TABLE SIZE: 705 POINTS
TCL: Setting parameter alchLambda2 to 0.5499999999999996
Info: NONBONDED TABLE R-SQUARED SPACING: 0.0625
Info: NONBONDED TABLE SIZE: 705 POINTS
TCL: Running for 1500000 steps
ETITLE: TS BOND ANGLE DIHED IMPRP ELECT VDW BOUNDARY MISC KINETIC TOTAL TEMP POTENTIAL TOTALAVG TEMPAVG PRESSURE GPRESSURE VOLUME PRESSAVG GPRESSAVG
ENERGY: 0 3.0822 1.8180 0.6694 0.0000 -10622.0857 1379.3682 0.0000 0.0000 1779.2396 -7457.9083 304.3352 -9237.1479 -7457.9083 304.3352 -413.6340 -319.7968 30128.2601 -413.6340 -319.7968
ENERGY: 300000 0.5043 3.6404 1.6105 0.0000 -10524.2857 1377.7992 0.0000 0.0000 1784.3060 -7356.4253 305.2018 -9140.7312 -7438.1295 304.7448 -398.6202 -303.1556 30634.2648 -336.7021 -271.0778
ENERGY: 600000 0.7919 4.5652 0.4009 0.0000 -10653.7569 1428.2465 0.0000 0.0000 1773.2882 -7446.4643 303.3172 -9219.7525 -7436.7830 304.0086 -267.6398 -143.2603 30303.1852 -184.2441 -100.0747
ENERGY: 900000 0.3852 6.1912 0.9227 0.0000 -10494.8563 1359.2646 0.0000 0.0000 1751.5039 -7376.5887 299.5910 -9128.0926 -7448.0619 301.9147 -590.6258 -536.5010 30803.7399 -275.4787 -198.0903
ENERGY: 1200000 0.4267 4.5545 0.7076 0.0000 -10580.6736 1348.1732 0.0000 0.0000 1712.4487 -7514.3628 292.9107 -9226.8115 -7452.7776 301.8682 -734.9577 -695.9697 30325.3771 -229.2288 -156.7754
ENERGY: 1500000 0.2441 8.2370 0.8579 0.0000 -10675.2915 1476.1844 0.0000 0.0000 1744.1537 -7445.6144 298.3338 -9189.7681 -7462.6031 301.7720 303.8233 401.7904 30252.3854 -180.0109 -109.8984
TCL: Running FEP window  10: Lambda1 0.5499999999999996 Lambda2 0.4999999999999996 [dLambda -0.04999999999999999]
TCL: Setting parameter firsttimestep to 0
TCL: Setting parameter alchLambda to 0.5499999999999996
Info: NONBONDED TABLE R-SQUARED SPACING: 0.0625
Info: NONBONDED TABLE SIZE: 705 POINTS
TCL: Setting parameter alchLambda2 to 0.4999999999999996
Info: NONBONDED TABLE R-SQUARED SPACING: 0.0625
Info: NONBONDED TABLE SIZE: 705 POINTS
TCL: Running for 1500000 steps
ETITLE: TS BOND ANGLE DIHED IMPRP ELECT VDW BOUNDARY MISC KINETIC TOTAL TEMP POTENTIAL TOTALAVG TEMPAVG PRESSURE GPRESSURE VOLUME PRESSAVG GPRESSAVG
ENERGY: 0 0.2441 8.2370 0.8579 0.0000 -10675.2272 1476.0617 0.0000 0.0000 1743.2638 -7446.5627 298.1816 -9189.8265 -7446.5627 298.1816 310.1252 396.9041 30252.3854 310.1252 396.9041
ENERGY: 300000 0.6685 6.7257 1.9306 0.0000 -10653.5491 1429.2538 0.0000 0.0000 1734.4446 -7480.5259 296.6731 -9214.9705 -7474.7017 298.0885 33.1314 94.0399 30058.8763 -135.5870 -57.0072
ENERGY: 600000 0.8844 5.2699 0.5159 0.0000 -10726.3358 1461.6961 0.0000 0.0000 1767.2622 -7490.7074 302.2865 -9257.9696 -7459.2579 300.3588 421.3189 467.7937 29611.7491 -28.4394 25.7362
ENERGY: 900000 2.9585 4.5190 0.2665 0.0000 -10573.0423 1327.3942 0.0000 0.0000 1771.8786 -7466.0254 303.0761 -9237.9041 -7477.9462 300.8612 -891.9458 -846.7928 30239.2619 -148.7246 -90.3822
ENERGY: 1200000 0.3662 4.7043 0.6104 0.0000 -10644.3285 1446.9303 0.0000 0.0000 1743.0678 -7448.6495 298.1481 -9191.7173 -7471.8007 301.4486 133.6056 260.2154 30371.9930 -151.9296 -83.0840
ENERGY: 1500000 1.0913 2.8015 0.7395 0.0000 -10727.8245 1494.5638 0.0000 0.0000 1772.2837 -7456.3448 303.1454 -9228.6285 -7472.0826 301.5133 437.0223 456.8918 30297.3061 -116.7934 -54.2416
TCL: Running FEP window  11: Lambda1 0.4999999999999996 Lambda2 0.4499999999999996 [dLambda -0.04999999999999999]
TCL: Setting parameter firsttimestep to 0
TCL: Setting parameter alchLambda to 0.4999999999999996
Info: NONBONDED TABLE R-SQUARED SPACING: 0.0625
Info: NONBONDED TABLE SIZE: 705 POINTS
TCL: Setting parameter alchLambda2 to 0.4499999999999996
Info: NONBONDED TABLE R-SQUARED SPACING: 0.0625
Info: NONBONDED TABLE SIZE: 705 POINTS
TCL: Running for 1500000 steps
ETITLE: TS BOND ANGLE DIHED IMPRP ELECT VDW BOUNDARY MISC KINETIC TOTAL TEMP POTENTIAL TOTALAVG TEMPAVG PRESSURE GPRESSURE VOLUME PRESSAVG GPRESSAVG
ENERGY: 0 1.0913 2.8015 0.7395 0.0000 -10727.9735 1494.8417 0.0000 0.0000 1771.4264 -7457.0733 302.9987 -9228.4996 -7457.0733 302.9987 371.8881 456.1414 30297.3061 371.8881 456.1414
ENERGY: 300000 1.0447 3.3340 1.3865 0.0000 -10651.2399 1378.8098 0.0000 0.0000 1745.9514 -7520.7135 298.6413 -9266.6649 -7501.7709 298.1728 -459.5768 -443.7505 29928.6368 280.2149 352.8880
ENERGY: 600000 1.1910 5.2214 0.3878 0.0000 -10668.2666 1465.4913 0.0000 0.0000 1768.4677 -7427.5075 302.4927 -9195.9752 -7465.2347 301.0128 388.9485 462.4341 30201.6828 357.9960 420.2662
ENERGY: 900000 1.3866 6.3811 1.0484 0.0000 -10655.9188 1438.8067 0.0000 0.0000 1731.3154 -7476.9807 296.1378 -9208.2961 -7467.0167 301.3457 100.6437 108.7950 30337.5530 314.1167 355.1099
ENERGY: 1200000 0.4174 4.1268 0.5240 0.0000 -10528.4353 1319.9961 0.0000 0.0000 1735.4432 -7467.9277 296.8439 -9203.3709 -7459.9546 300.6370 -1010.3654 -1006.8468 30724.0259 175.6173 221.3612
ENERGY: 1500000 1.9889 6.5076 0.5928 0.0000 -10633.6644 1389.4338 0.0000 0.0000 1730.2555 -7504.8859 295.9565 -9235.1414 -7457.5942 300.5803 -599.0826 -520.8658 30317.7688 112.0650 164.8622
TCL: Running FEP window  12: Lambda1 0.4499999999999996 Lambda2 0.39999999999999963 [dLambda -0.04999999999999999]
TCL: Setting parameter firsttimestep to 0
TCL: Setting parameter alchLambda to 0.4499999999999996
Info: NONBONDED TABLE R-SQUARED SPACING: 0.0625
Info: NONBONDED TABLE SIZE: 705 POINTS
TCL: Setting parameter alchLambda2 to 0.39999999999999963
Info: NONBONDED TABLE R-SQUARED SPACING: 0.0625
Info: NONBONDED TABLE SIZE: 705 POINTS
TCL: Running for 1500000 steps
ETITLE: TS BOND ANGLE DIHED IMPRP ELECT VDW BOUNDARY MISC KINETIC TOTAL TEMP POTENTIAL TOTALAVG TEMPAVG PRESSURE GPRESSURE VOLUME PRESSAVG GPRESSAVG
ENERGY: 0 1.9889 6.5076 0.5928 0.0000 -10633.6642 1389.8048 0.0000 0.0000 1729.3802 -7505.3900 295.8068 -9234.7701 -7505.3900 295.8068 -591.0287 -518.6476 30317.7688 -591.0287 -518.6476
ENERGY: 300000 2.3785 7.3086 0.7892 0.0000 -10678.3277 1467.4760 0.0000 0.0000 1719.9319 -7480.4435 294.1907 -9200.3754 -7474.1716 297.0943 276.1745 369.3038 30155.1152 -331.8566 -266.5484
ENERGY: 600000 1.1689 5.3966 0.2750 0.0000 -10592.1173 1362.5346 0.0000 0.0000 1739.7792 -7482.9629 297.5856 -9222.7421 -7461.8534 298.9351 -847.7141 -837.8686 30773.1200 -513.0313 -464.2483
ENERGY: 900000 0.5424 4.4166 0.4979 0.0000 -10662.7426 1470.1746 0.0000 0.0000 1775.5741 -7411.5371 303.7082 -9187.1111 -7464.7563 300.4077 81.1056 174.5471 30632.6063 -331.6167 -271.9562
ENERGY: 1200000 0.9652 3.4378 0.4533 0.0000 -10643.7156 1371.5956 0.0000 0.0000 1740.9492 -7526.3144 297.7857 -9267.2636 -7471.6345 299.7770 -676.4799 -671.4190 30283.5743 -237.7474 -180.5979
ENERGY: 1500000 0.7404 4.7998 0.3225 0.0000 -10785.0624 1479.7857 0.0000 0.0000 1756.0508 -7543.3631 300.3688 -9299.4139 -7473.2588 299.8738 221.8832 271.0376 30093.1951 -205.2566 -143.7030
TCL: Running FEP window  13: Lambda1 0.39999999999999963 Lambda2 0.34999999999999964 [dLambda -0.04999999999999999]
TCL: Setting parameter firsttimestep to 0
TCL: Setting parameter alchLambda to 0.39999999999999963
Info: NONBONDED TABLE R-SQUARED SPACING: 0.0625
Info: NONBONDED TABLE SIZE: 705 POINTS
TCL: Setting parameter alchLambda2 to 0.34999999999999964
Info: NONBONDED TABLE R-SQUARED SPACING: 0.0625
Info: NONBONDED TABLE SIZE: 705 POINTS
TCL: Running for 1500000 steps
ETITLE: TS BOND ANGLE DIHED IMPRP ELECT VDW BOUNDARY MISC KINETIC TOTAL TEMP POTENTIAL TOTALAVG TEMPAVG PRESSURE GPRESSURE VOLUME PRESSAVG GPRESSAVG
ENERGY: 0 0.7404 4.7998 0.3225 0.0000 -10785.0614 1479.9987 0.0000 0.0000 1755.1574 -7544.0425 300.2160 -9299.1999 -7544.0425 300.2160 172.5356 266.3742 30093.1951 172.5356 266.3742
ENERGY: 300000 0.1757 4.6494 1.3649 0.0000 -10791.4362 1480.3530 0.0000 0.0000 1759.8116 -7545.0815 301.0121 -9304.8932 -7515.0901 299.6454 335.8380 356.5423 29702.2021 145.5895 207.7790
ENERGY: 600000 0.6072 3.2989 0.7110 0.0000 -10684.0818 1476.9930 0.0000 0.0000 1826.6281 -7375.8436 312.4409 -9202.4717 -7485.3433 301.5358 412.8879 440.2548 30412.2805 254.5253 311.6119
ENERGY: 900000 3.5680 6.7037 1.0747 0.0000 -10643.9418 1466.8486 0.0000 0.0000 1846.8617 -7318.8851 315.9018 -9165.7468 -7466.8315 303.0863 461.2412 490.7566 29972.2017 218.9721 273.0293
ENERGY: 1200000 0.1184 2.5824 1.2742 0.0000 -10673.8365 1463.5225 0.0000 0.0000 1770.9155 -7435.4235 302.9114 -9206.3391 -7455.0697 303.6830 211.4382 294.4538 30418.1485 217.9137 281.8500
ENERGY: 1500000 0.4191 9.1347 1.2966 0.0000 -10551.1100 1392.4018 0.0000 0.0000 1771.9543 -7375.9035 303.0890 -9147.8578 -7454.0027 303.1033 -220.5780 -161.5324 30447.4073 246.7653 308.1975
TCL: Running FEP window  14: Lambda1 0.34999999999999964 Lambda2 0.29999999999999966 [dLambda -0.04999999999999999]
TCL: Setting parameter firsttimestep to 0
TCL: Setting parameter alchLambda to 0.34999999999999964
Info: NONBONDED TABLE R-SQUARED SPACING: 0.0625
Info: NONBONDED TABLE SIZE: 705 POINTS
TCL: Setting parameter alchLambda2 to 0.29999999999999966
Info: NONBONDED TABLE R-SQUARED SPACING: 0.0625
Info: NONBONDED TABLE SIZE: 705 POINTS
TCL: Running for 1500000 steps
ETITLE: TS BOND ANGLE DIHED IMPRP ELECT VDW BOUNDARY MISC KINETIC TOTAL TEMP POTENTIAL TOTALAVG TEMPAVG PRESSURE GPRESSURE VOLUME PRESSAVG GPRESSAVG
ENERGY: 0 0.4191 9.1347 1.2966 0.0000 -10551.1082 1392.7666 0.0000 0.0000 1771.0945 -7376.3966 302.9420 -9147.4911 -7376.3966 302.9420 -242.7444 -159.4304 30447.4073 -242.7444 -159.4304
ENERGY: 300000 1.4180 9.3099 0.2282 0.0000 -10747.8277 1478.1849 0.0000 0.0000 1745.4052 -7513.2814 298.5479 -9258.6867 -7435.6634 302.3679 233.2941 310.5235 29992.7051 71.3487 135.0992
ENERGY: 600000 0.2312 2.7528 1.2030 0.0000 -10573.9230 1377.0504 0.0000 0.0000 1719.9994 -7472.6860 294.2023 -9192.6854 -7444.8490 299.6885 -612.2981 -524.3488 30340.4038 15.3188 79.6367
ENERGY: 900000 0.1337 4.6821 0.2335 0.0000 -10812.9543 1499.1641 0.0000 0.0000 1700.1379 -7608.6030 290.8050 -9308.7409 -7473.6270 298.7068 146.6973 258.7229 30290.2248 175.4200 236.6360
ENERGY: 1200000 0.5910 4.3674 2.2669 0.0000 -10766.9548 1465.7005 0.0000 0.0000 1717.2337 -7576.7953 293.7292 -9294.0290 -7478.6935 298.7156 130.7012 219.3863 29938.4768 172.9708 229.0398
ENERGY: 1500000 0.5442 8.0912 0.7163 0.0000 -10770.9287 1492.9993 0.0000 0.0000 1763.1465 -7505.4313 301.5825 -9268.5778 -7486.1370 298.1353 464.6021 514.3246 29716.2698 129.2289 187.2836
TCL: Running FEP window  15: Lambda1 0.29999999999999966 Lambda2 0.24999999999999967 [dLambda -0.04999999999999999]
TCL: Setting parameter firsttimestep to 0
TCL: Setting parameter alchLambda to 0.29999999999999966
Info: NONBONDED TABLE R-SQUARED SPACING: 0.0625
Info: NONBONDED TABLE SIZE: 705 POINTS
TCL: Setting parameter alchLambda2 to 0.24999999999999967
Info: NONBONDED TABLE R-SQUARED SPACING: 0.0625
Info: NONBONDED TABLE SIZE: 705 POINTS
TCL: Running for 1500000 steps
ETITLE: TS BOND ANGLE DIHED IMPRP ELECT VDW BOUNDARY MISC KINETIC TOTAL TEMP POTENTIAL TOTALAVG TEMPAVG PRESSURE GPRESSURE VOLUME PRESSAVG GPRESSAVG
ENERGY: 0 0.5442 8.0912 0.7163 0.0000 -10770.9291 1493.1173 0.0000 0.0000 1762.2798 -7506.1803 301.4342 -9268.4601 -7506.1803 301.4342 432.7779 512.5673 29716.2698 432.7779 512.5673
ENERGY: 300000 0.4696 3.0088 0.1248 0.0000 -10636.7886 1427.1381 0.0000 0.0000 1768.0997 -7437.9477 302.4297 -9206.0474 -7482.4916 302.7799 -82.9609 -19.7842 30214.9267 186.5055 259.8565
ENERGY: 600000 1.3742 3.2474 1.1562 0.0000 -10613.9566 1422.3403 0.0000 0.0000 1742.4597 -7443.3787 298.0441 -9185.8385 -7446.0456 302.7526 -180.8150 -101.4147 30556.8770 203.4409 267.2235
ENERGY: 900000 0.2474 3.1032 0.4652 0.0000 -10492.2778 1326.2452 0.0000 0.0000 1770.9393 -7391.2775 302.9154 -9162.2168 -7432.9546 302.4835 -609.0949 -577.5234 30258.5847 57.3057 109.0356
ENERGY: 1200000 0.2828 4.5331 0.3632 0.0000 -10617.7839 1411.4118 0.0000 0.0000 1787.0828 -7414.1103 305.6767 -9201.1930 -7440.9599 303.7646 146.5780 170.9143 29889.7235 -32.9822 27.5262
ENERGY: 1500000 0.2781 2.6330 0.1345 0.0000 -10635.2277 1426.8994 0.0000 0.0000 1760.8319 -7444.4507 301.1866 -9205.2827 -7451.9249 302.8766 4.0373 56.9717 30290.4034 10.2708 67.9079
TCL: Running FEP window  16: Lambda1 0.24999999999999967 Lambda2 0.19999999999999968 [dLambda -0.04999999999999999]
TCL: Setting parameter firsttimestep to 0
TCL: Setting parameter alchLambda to 0.24999999999999967
Info: NONBONDED TABLE R-SQUARED SPACING: 0.0625
Info: NONBONDED TABLE SIZE: 705 POINTS
TCL: Setting parameter alchLambda2 to 0.19999999999999968
Info: NONBONDED TABLE R-SQUARED SPACING: 0.0625
Info: NONBONDED TABLE SIZE: 705 POINTS
TCL: Running for 1500000 steps
ETITLE: TS BOND ANGLE DIHED IMPRP ELECT VDW BOUNDARY MISC KINETIC TOTAL TEMP POTENTIAL TOTALAVG TEMPAVG PRESSURE GPRESSURE VOLUME PRESSAVG GPRESSAVG
ENERGY: 0 0.2781 2.6330 0.1345 0.0000 -10635.2266 1426.4099 0.0000 0.0000 1759.9752 -7445.7960 301.0400 -9205.7711 -7445.7960 301.0400 -42.1626 50.7515 30290.4034 -42.1626 50.7515
ENERGY: 300000 0.2193 3.7581 0.4159 0.0000 -10728.8080 1491.2540 0.0000 0.0000 1739.6088 -7493.5519 297.5564 -9233.1606 -7477.3560 300.2666 265.1524 334.5243 30575.7332 210.3676 303.4169
ENERGY: 600000 2.0098 3.0960 0.1887 0.0000 -10745.7883 1462.3777 0.0000 0.0000 1789.2860 -7488.8302 306.0536 -9278.1162 -7475.0729 301.1801 43.2336 96.0192 30290.2017 35.0197 104.6318
ENERGY: 900000 2.6221 4.8213 0.3527 0.0000 -10525.1696 1337.0602 0.0000 0.0000 1786.2865 -7394.0268 305.5405 -9180.3133 -7465.4406 302.0812 -782.7123 -664.8909 30324.9529 -142.4581 -64.2149
ENERGY: 1200000 0.8637 4.3875 0.7155 0.0000 -10801.6579 1543.5580 0.0000 0.0000 1771.8739 -7480.2593 303.0753 -9252.1332 -7462.5845 302.4774 1179.3922 1192.4300 29569.4667 24.1311 94.2534
ENERGY: 1500000 0.3551 5.2147 0.9301 0.0000 -10773.7696 1504.1544 0.0000 0.0000 1766.2021 -7496.9133 302.1051 -9263.1154 -7474.8271 301.2886 794.2802 785.4968 29700.9346 48.5067 114.5531
TCL: Running FEP window  17: Lambda1 0.19999999999999968 Lambda2 0.1499999999999997 [dLambda -0.04999999999999999]
TCL: Setting parameter firsttimestep to 0
TCL: Setting parameter alchLambda to 0.19999999999999968
Info: NONBONDED TABLE R-SQUARED SPACING: 0.0625
Info: NONBONDED TABLE SIZE: 705 POINTS
TCL: Setting parameter alchLambda2 to 0.1499999999999997
Info: NONBONDED TABLE R-SQUARED SPACING: 0.0625
Info: NONBONDED TABLE SIZE: 705 POINTS
TCL: Running for 1500000 steps
ETITLE: TS BOND ANGLE DIHED IMPRP ELECT VDW BOUNDARY MISC KINETIC TOTAL TEMP POTENTIAL TOTALAVG TEMPAVG PRESSURE GPRESSURE VOLUME PRESSAVG GPRESSAVG
ENERGY: 0 0.3551 5.2147 0.9301 0.0000 -10773.7699 1504.4447 0.0000 0.0000 1765.3492 -7497.4762 301.9593 -9262.8254 -7497.4762 301.9593 706.2309 786.2207 29700.9346 706.2309 786.2207
ENERGY: 300000 0.5331 5.5518 0.6804 0.0000 -10717.2057 1413.5837 0.0000 0.0000 1720.9831 -7575.8735 294.3705 -9296.8566 -7499.8999 297.5744 -129.5398 -50.8329 29357.1671 176.5980 261.9761
ENERGY: 600000 1.6669 2.3249 0.7753 0.0000 -10704.2336 1446.6343 0.0000 0.0000 1710.8179 -7542.0142 292.6318 -9252.8321 -7491.3240 297.8914 -18.2472 37.3311 29951.7344 56.8351 124.2555
ENERGY: 900000 1.0657 7.0354 0.4796 0.0000 -10661.7241 1447.6665 0.0000 0.0000 1727.5776 -7477.8992 295.4985 -9205.4768 -7493.3939 297.8060 10.5273 106.1530 30308.4225 -54.8006 24.9633
ENERGY: 1200000 1.4708 4.6038 0.2755 0.0000 -10862.4652 1574.7691 0.0000 0.0000 1671.1517 -7610.1942 285.8470 -9281.3460 -7511.2876 296.6703 1029.4674 1090.4025 29904.7273 -59.0088 15.4077
ENERGY: 1500000 0.5072 4.6614 0.6257 0.0000 -10613.5682 1355.7266 0.0000 0.0000 1720.4588 -7531.5885 294.2809 -9252.0473 -7509.4224 296.7585 -817.9569 -741.8234 30114.4618 -88.0626 -12.4059
TCL: Running FEP window  18: Lambda1 0.1499999999999997 Lambda2 0.09999999999999969 [dLambda -0.05 ]
TCL: Setting parameter firsttimestep to 0
TCL: Setting parameter alchLambda to 0.1499999999999997
Info: NONBONDED TABLE R-SQUARED SPACING: 0.0625
Info: NONBONDED TABLE SIZE: 705 POINTS
TCL: Setting parameter alchLambda2 to 0.09999999999999969
Info: NONBONDED TABLE R-SQUARED SPACING: 0.0625
Info: NONBONDED TABLE SIZE: 705 POINTS
TCL: Running for 1500000 steps
ETITLE: TS BOND ANGLE DIHED IMPRP ELECT VDW BOUNDARY MISC KINETIC TOTAL TEMP POTENTIAL TOTALAVG TEMPAVG PRESSURE GPRESSURE VOLUME PRESSAVG GPRESSAVG
ENERGY: 0 0.5072 4.6614 0.6257 0.0000 -10613.5677 1355.3407 0.0000 0.0000 1719.6134 -7532.8193 294.1362 -9252.4327 -7532.8193 294.1362 -846.4574 -744.1075 30114.4618 -846.4574 -744.1075
ENERGY: 300000 2.1302 5.2119 1.0997 0.0000 -10735.6055 1450.7505 0.0000 0.0000 1748.4059 -7528.0074 299.0611 -9276.4133 -7484.5332 295.9846 -91.9131 -6.5305 30105.7831 -234.3004 -148.0357
ENERGY: 600000 1.0461 5.9881 0.4250 0.0000 -10740.6657 1493.5046 0.0000 0.0000 1811.4700 -7428.2320 309.8481 -9239.7020 -7491.0326 298.3866 357.1382 397.4362 30364.7541 -21.3100 55.9046
ENERGY: 900000 0.3291 3.9605 0.3174 0.0000 -10666.5542 1493.1069 0.0000 0.0000 1740.0555 -7428.7849 297.6328 -9168.8404 -7495.1719 298.6456 533.6968 501.6804 30300.6545 -6.8415 59.0114
ENERGY: 1200000 0.2800 4.2783 1.1362 0.0000 -10611.7775 1431.9254 0.0000 0.0000 1758.4525 -7415.7050 300.7796 -9174.1575 -7490.5996 299.3854 272.5120 291.5965 30075.8649 95.1984 160.3026
ENERGY: 1500000 1.9174 5.3055 0.7332 0.0000 -10717.7063 1442.2610 0.0000 0.0000 1726.6351 -7540.8541 295.3373 -9267.4892 -7495.6337 299.0569 -17.7878 13.3219 30102.9742 62.9554 125.0962
TCL: Running FEP window  19: Lambda1 0.09999999999999969 Lambda2 0.049999999999999684 [dLambda -0.05 ]
TCL: Setting parameter firsttimestep to 0
TCL: Setting parameter alchLambda to 0.09999999999999969
Info: NONBONDED TABLE R-SQUARED SPACING: 0.0625
Info: NONBONDED TABLE SIZE: 705 POINTS
TCL: Setting parameter alchLambda2 to 0.049999999999999684
Info: NONBONDED TABLE R-SQUARED SPACING: 0.0625
Info: NONBONDED TABLE SIZE: 705 POINTS
TCL: Running for 1500000 steps
ETITLE: TS BOND ANGLE DIHED IMPRP ELECT VDW BOUNDARY MISC KINETIC TOTAL TEMP POTENTIAL TOTALAVG TEMPAVG PRESSURE GPRESSURE VOLUME PRESSAVG GPRESSAVG
ENERGY: 0 1.9174 5.3055 0.7332 0.0000 -10717.7055 1441.7079 0.0000 0.0000 1725.7565 -7542.2851 295.1870 -9268.0416 -7542.2851 295.1870 -58.1723 10.8658 30102.9742 -58.1723 10.8658
ENERGY: 300000 0.8741 4.5752 0.7829 0.0000 -10914.2033 1529.3920 0.0000 0.0000 1733.6825 -7644.8966 296.5427 -9378.5792 -7517.5647 298.2403 326.4042 390.6466 29746.5832 -89.3037 -36.6948
ENERGY: 600000 0.7462 3.0177 1.3050 0.0000 -10617.2157 1395.6272 0.0000 0.0000 1705.7623 -7510.7573 291.7670 -9216.5196 -7512.1607 297.1474 -394.6272 -349.0392 30291.8267 -251.8892 -198.8684
ENERGY: 900000 1.3896 3.7447 1.4849 0.0000 -10709.9660 1401.8187 0.0000 0.0000 1787.7864 -7513.7416 305.7971 -9301.5280 -7504.4784 297.2699 -440.4738 -363.5707 29932.1209 -244.3773 -178.9975
ENERGY: 1200000 0.1069 4.1686 1.2091 0.0000 -10655.4608 1360.7107 0.0000 0.0000 1771.7747 -7517.4908 303.0583 -9289.2655 -7497.8972 297.9797 -892.5469 -824.5307 30458.1441 -265.8113 -201.5766
ENERGY: 1500000 1.5442 3.5789 0.5949 0.0000 -10668.2397 1414.0150 0.0000 0.0000 1748.9626 -7499.5440 299.1564 -9248.5067 -7497.3424 297.8535 -35.3498 -57.4985 29970.8650 -329.4388 -267.9041
TCL: Running FEP window  20: Lambda1 0.049999999999999684 Lambda2 0.0    [dLambda -0.049999999999999684]
TCL: Setting parameter firsttimestep to 0
TCL: Setting parameter alchLambda to 0.049999999999999684
Info: NONBONDED TABLE R-SQUARED SPACING: 0.0625
Info: NONBONDED TABLE SIZE: 705 POINTS
TCL: Setting parameter alchLambda2 to 0.0
Info: NONBONDED TABLE R-SQUARED SPACING: 0.0625
Info: NONBONDED TABLE SIZE: 705 POINTS
TCL: Running for 1500000 steps
ETITLE: TS BOND ANGLE DIHED IMPRP ELECT VDW BOUNDARY MISC KINETIC TOTAL TEMP POTENTIAL TOTALAVG TEMPAVG PRESSURE GPRESSURE VOLUME PRESSAVG GPRESSAVG
ENERGY: 0 1.5442 3.5789 0.5949 0.0000 -10668.2376 1413.6864 0.0000 0.0000 1748.0802 -7500.7529 299.0054 -9248.8331 -7500.7529 299.0054 -143.7035 -61.4926 29970.8650 -143.7035 -61.4926
ENERGY: 300000 1.0886 6.1486 0.5389 0.0000 -10543.6356 1358.5941 0.0000 0.0000 1764.5847 -7412.6808 301.8285 -9177.2655 -7464.6661 302.3085 -800.1346 -732.2921 30557.8763 -318.1808 -251.1445
ENERGY: 600000 2.0421 6.7400 0.8560 0.0000 -10641.1108 1461.3116 0.0000 0.0000 1751.5643 -7418.5967 299.6014 -9170.1610 -7456.8371 302.5489 400.1000 427.6404 30208.3951 -108.1725 -42.4869
ENERGY: 900000 0.2902 8.4988 0.1869 0.0000 -10866.8708 1556.1818 0.0000 0.0000 1789.4874 -7512.2258 306.0880 -9301.7132 -7462.5021 301.9865 721.7873 831.2635 29842.2694 -21.5682 52.1800
ENERGY: 1200000 1.8130 5.0916 1.4593 0.0000 -10571.9004 1422.4630 0.0000 0.0000 1804.8042 -7336.2694 308.7079 -9141.0736 -7467.0283 301.3754 -49.5205 26.4703 30519.8259 2.4106 73.7743
ENERGY: 1500000 0.6203 3.3258 0.1213 0.0000 -10658.2291 1520.7158 0.0000 0.0000 1756.5893 -7376.8566 300.4609 -9133.4458 -7468.5419 300.6872 974.2366 1053.8941 30035.1289 50.1096 124.2100
TCL: Exiting due to exit command.
