Info: SIMULATION PARAMETERS:
Info: TIMESTEP               2
Info: NUMBER OF STEPS        0
Info: STEPS PER CYCLE        10
Info: PERIODIC CELL BASIS 1  30.9481 0 0
Info: PERIODIC CELL BASIS 2  0 30.2851 0
Info: PERIODIC CELL BASIS 3  0 0 31.9992
Info: PERIODIC CELL CENTER   0 0 0
Info: WRAPPING WATERS AROUND PERIODIC BOUNDARIES ON OUTPUT.
Info: WRAPPING ALL CLUSTERS AROUND PERIODIC BOUNDARIES ON OUTPUT.
Info: FIRST LDB TIMESTEP     50
Info: LAST LDB TIMESTEP     -1
Info: HOM BACKGROUND SCALING 1
Info: PME BACKGROUND SCALING 1
Info: MIN ATOMS PER PATCH    40
Info: EMPTY PATCH LOAD       40 ATOMS
Info: VELOCITY FILE          mobley_5692472_equil.vel
Info: CENTER OF MASS MOVING INITIALLY? NO
Info: DIELECTRIC             1
Info: EXCLUDE                SCALED ONE-FOUR
Info: 1-4 ELECTROSTATICS SCALED BY 0.833333
Info: MODIFIED 1-4 VDW PARAMETERS WILL BE USED
Info: DCD FILENAME           mobley_5692472_prod.dcd
Info: DCD FREQUENCY          100000
Info: DCD FIRST STEP         100000
Info: DCD FILE WILL CONTAIN UNIT CELL DATA
Info: XST FILENAME           mobley_5692472_prod.xst
Info: XST FREQUENCY          100000
Info: NO VELOCITY DCD OUTPUT
Info: NO FORCE DCD OUTPUT
Info: OUTPUT FILENAME        mobley_5692472_prod
Info: BINARY OUTPUT FILES WILL BE USED
Info: RESTART FILENAME       mobley_5692472_prod.restart
Info: RESTART FREQUENCY      100000
Info: BINARY RESTART FILES WILL BE USED
Info: CUTOFF                 9
Info: PAIRLIST DISTANCE      11
Info: PAIRLIST SHRINK RATE   0.01
Info: PAIRLIST GROW RATE     0.01
Info: PAIRLIST TRIGGER       0.3
Info: PAIRLISTS PER CYCLE    2
Info: PAIRLISTS ENABLED
Info: MARGIN                 2
Info: HYDROGEN GROUP CUTOFF  2.5
Info: PATCH DIMENSION        15.5
Info: ENERGY OUTPUT STEPS    100000
Info: ENERGY EVALUATION STEPS    100000
Info: OUTPUT ENERGY PRECISION 4
Info: CROSSTERM ENERGY INCLUDED IN DIHEDRAL
Info: TIMING OUTPUT STEPS    1000000
Info: PRESSURE OUTPUT STEPS  100000
Info: ALCHEMICAL FEP ON
Info: FEP CURRENT LAMBDA VALUE     1
Info: FEP COMPARISON LAMBDA VALUE  0.95
Info: FEP INTRA-ALCHEMICAL NON-BONDED INTERACTIONS WILL BE RETAINED
Info: FEP INTRA-ALCHEMICAL BONDED INTERACTIONS WILL BE RETAINED
Info: FEP VDW SHIFTING COEFFICIENT 5
Info: FEP ELEC. ACTIVE FOR ANNIHILATED PARTICLES BETWEEN LAMBDA = 0 AND LAMBDA = 0.5
Info: FEP ELEC. ACTIVE FOR EXNIHILATED PARTICLES BETWEEN LAMBDA = 0.5 AND LAMBDA = 1
Info: FEP VDW ACTIVE FOR ANNIHILATED PARTICLES BETWEEN LAMBDA = 0 AND LAMBDA = 1
Info: FEP VDW ACTIVE FOR EXNIHILATED PARTICLES BETWEEN LAMBDA = 0 AND LAMBDA = 1
Info: FEP BOND ACTIVE FOR ANNIHILATED PARTICLES BETWEEN LAMBDA = 1 AND LAMBDA = 1
Info: FEP BOND ACTIVE FOR EXNIHILATED PARTICLES BETWEEN LAMBDA = 0 AND LAMBDA = 0
Info: LANGEVIN DYNAMICS ACTIVE
Info: LANGEVIN TEMPERATURE   300
Info: LANGEVIN USING BBK INTEGRATOR
Info: LANGEVIN DAMPING COEFFICIENT IS 1 INVERSE PS
Info: LANGEVIN DYNAMICS APPLIED TO HYDROGENS
Info: LANGEVIN PISTON PRESSURE CONTROL ACTIVE
Info:        TARGET PRESSURE IS 1.01325 BAR
Info:     OSCILLATION PERIOD IS 50 FS
Info:             DECAY TIME IS 25 FS
Info:     PISTON TEMPERATURE IS 300 K
Info:       PRESSURE CONTROL IS GROUP-BASED
Info:    INITIAL STRAIN RATE IS -0.000393525 -0.000393525 -0.000393525
Info:       CELL FLUCTUATION IS ISOTROPIC
Info: PARTICLE MESH EWALD (PME) ACTIVE
Info: PME TOLERANCE               1e-06
Info: PME EWALD COEFFICIENT       0.348832
Info: PME INTERPOLATION ORDER     4
Info: PME GRID DIMENSIONS         32 32 32
Info: PME MAXIMUM GRID SPACING    1
Info: PME CALCULATION WILL BE PERFORMED ON GPU
Info: FULL ELECTROSTATIC EVALUATION FREQUENCY      2
Info: USING VERLET I (r-RESPA) MTS SCHEME.
Info: C1 SPLITTING OF LONG RANGE ELECTROSTATICS
Info: PLACING ATOMS IN PATCHES BY HYDROGEN GROUPS
Info: RIGID BONDS TO HYDROGEN : ALL
Info:         ERROR TOLERANCE : 1e-08
Info:          MAX ITERATIONS : 100
Info: RIGID WATER USING SETTLE ALGORITHM
Info: RANDOM NUMBER SEED     1742535690
Info: USE HYDROGEN BONDS?    NO
Info: Using AMBER format force field!
Info: AMBER PARM FILE        mobley_5692472.prmtop
Info: COORDINATE PDB         mobley_5692472.pdb
Info: Exclusions will be read from PARM file!
Info: SCNB (VDW SCALING)     2
Info: USING ARITHMETIC MEAN TO COMBINE L-J SIGMA PARAMETERS
Info: BINARY COORDINATES     mobley_5692472_equil.coor
Info: SUMMARY OF PARAMETERS:
Info: 5 BONDS
Info: 4 ANGLES
Info:   4 HARMONIC
Info:   0 COSINE-BASED
Info: 2 DIHEDRAL
Info: 0 IMPROPER
Info: 0 CROSSTERM
Info: 0 VDW
Info: 21 VDW_PAIRS
Info: 0 NBTHOLE_PAIRS
Info: To read alchdata from file: mobley_5692472.pdb
Info: To read alchflag data from column: 5
Info: STRUCTURE SUMMARY:
Info: 2941 ATOMS
Info: 2940 BONDS
Info: 15 ANGLES
Info: 12 DIHEDRALS
Info: 0 IMPROPERS
Info: 0 CROSSTERMS
Info: 2967 EXCLUSIONS
Info: 2938 RIGID BONDS
Info: ALCH: 0 ATOMS TO DISAPPEAR IN FINAL STATE
Info: ALCH: 10 ATOMS TO APPEAR IN FINAL STATE
Info: 5885 DEGREES OF FREEDOM
Info: 980 HYDROGEN GROUPS
Info: 4 ATOMS IN LARGEST HYDROGEN GROUP
Info: 980 MIGRATION GROUPS
Info: 4 ATOMS IN LARGEST MIGRATION GROUP
Info: TOTAL MASS = 17646.7 amu
Info: TOTAL CHARGE = 7.45058e-09 e
Info: MASS DENSITY = 0.97706 g/cm^3
Info: ATOM DENSITY = 0.0980603 atoms/A^3
Info: ADDED 0 IMPLICIT EXCLUSIONS
Info: NONBONDED TABLE R-SQUARED SPACING: 0.0625
Info: NONBONDED TABLE SIZE: 705 POINTS
Info: REMOVING COM VELOCITY -0.00624258 -0.0512553 0.0764696
Info: Use 3D box decompostion in PME FFT.
Info: Updated CUDA force table with 4096 elements.
Info: Updated CUDA LJ table with 6 x 6 elements.
Info: Found 13 unique exclusion lists needing 20 bytes
TCL: Running for 1500000 steps
ETITLE: TS BOND ANGLE DIHED IMPRP ELECT VDW BOUNDARY MISC KINETIC TOTAL TEMP POTENTIAL TOTALAVG TEMPAVG PRESSURE GPRESSURE VOLUME PRESSAVG GPRESSAVG
ENERGY: 0 0.1646 6.2705 0.2667 0.0000 -10635.1686 1411.2005 0.0000 0.0000 1738.0932 -7479.1732 297.2466 -9217.2663 -7479.1732 297.2466 -43.9865 54.7524 29991.7466 -43.9865 54.7524
ENERGY: 300000 0.1702 4.4395 0.1194 0.0000 -10777.1226 1471.3478 0.0000 0.0000 1771.8722 -7529.1734 303.0235 -9301.0456 -7466.7868 303.5916 -7.1351 59.0481 30253.0424 -108.8992 -11.3895
ENERGY: 600000 1.0935 2.9311 0.4462 0.0000 -10748.9754 1483.1897 0.0000 0.0000 1794.6826 -7466.6322 306.9245 -9261.3148 -7475.1006 303.8933 125.8116 132.9909 30436.4017 -116.4744 -60.7013
ENERGY: 900000 0.0492 3.6308 0.8558 0.0000 -10756.9158 1588.3189 0.0000 0.0000 1716.6845 -7447.3765 293.5854 -9164.0611 -7464.1549 302.3323 987.0678 1074.4344 30731.7982 0.2726 61.4157
ENERGY: 1200000 1.3244 1.8709 0.1939 0.0000 -10545.5585 1380.5378 0.0000 0.0000 1730.2898 -7431.3417 295.9121 -9161.6315 -7461.2541 301.9796 -633.4695 -538.4596 30852.5389 -117.2894 -55.9003
ENERGY: 1500000 0.4165 3.6299 0.2226 0.0000 -10801.1397 1436.5479 0.0000 0.0000 1757.9297 -7602.3931 300.6391 -9360.3229 -7469.8393 301.0679 -244.6492 -233.9212 29903.7619 -70.5225 -12.0314
TCL: Running FEP window   2: Lambda1 0.95   Lambda2 0.8999999999999999 [dLambda -0.050000000000000044]
TCL: Setting parameter firsttimestep to 0
TCL: Setting parameter alchLambda to 0.95
Info: NONBONDED TABLE R-SQUARED SPACING: 0.0625
Info: NONBONDED TABLE SIZE: 705 POINTS
TCL: Setting parameter alchLambda2 to 0.8999999999999999
Info: NONBONDED TABLE R-SQUARED SPACING: 0.0625
Info: NONBONDED TABLE SIZE: 705 POINTS
TCL: Running for 1500000 steps
ETITLE: TS BOND ANGLE DIHED IMPRP ELECT VDW BOUNDARY MISC KINETIC TOTAL TEMP POTENTIAL TOTALAVG TEMPAVG PRESSURE GPRESSURE VOLUME PRESSAVG GPRESSAVG
ENERGY: 0 0.4165 3.6299 0.2226 0.0000 -10799.9583 1436.3079 0.0000 0.0000 1757.0662 -7602.3154 300.4914 -9359.3815 -7602.3154 300.4914 -333.3338 -241.5561 29903.7619 -333.3338 -241.5561
ENERGY: 300000 0.0568 4.4789 0.1799 0.0000 -10599.0829 1438.9436 0.0000 0.0000 1761.3238 -7394.0998 301.2195 -9155.4236 -7480.2699 299.3703 102.5640 91.9681 30477.6916 -81.2502 -25.5991
ENERGY: 600000 1.0125 2.3944 0.8918 0.0000 -10681.2274 1422.3454 0.0000 0.0000 1702.8525 -7551.7308 291.2198 -9254.5833 -7490.9064 298.8580 -52.5009 -22.2755 29580.7411 -20.1426 27.4696
ENERGY: 900000 0.0126 5.6443 0.3231 0.0000 -10579.0626 1358.3463 0.0000 0.0000 1742.1714 -7472.5649 297.9441 -9214.7363 -7478.2634 299.7126 -597.0525 -504.8539 30177.3832 -30.0613 26.8637
ENERGY: 1200000 1.0830 3.5161 0.2441 0.0000 -10667.2004 1426.1072 0.0000 0.0000 1728.9452 -7507.3048 295.6822 -9236.2500 -7483.0428 299.7224 -179.5812 -123.8258 30331.1365 -21.5097 36.7864
ENERGY: 1500000 0.0386 3.9012 0.7256 0.0000 -10720.3917 1486.7833 0.0000 0.0000 1699.5253 -7529.4177 290.6508 -9228.9430 -7486.5760 300.1373 379.6369 422.3745 30213.6001 -47.0658 8.9741
TCL: Running FEP window   3: Lambda1 0.8999999999999999 Lambda2 0.8499999999999999 [dLambda -0.050000000000000044]
TCL: Setting parameter firsttimestep to 0
TCL: Setting parameter alchLambda to 0.8999999999999999
Info: NONBONDED TABLE R-SQUARED SPACING: 0.0625
Info: NONBONDED TABLE SIZE: 705 POINTS
TCL: Setting parameter alchLambda2 to 0.8499999999999999
Info: NONBONDED TABLE R-SQUARED SPACING: 0.0625
Info: NONBONDED TABLE SIZE: 705 POINTS
TCL: Running for 1500000 steps
ETITLE: TS BOND ANGLE DIHED IMPRP ELECT VDW BOUNDARY MISC KINETIC TOTAL TEMP POTENTIAL TOTALAVG TEMPAVG PRESSURE GPRESSURE VOLUME PRESSAVG GPRESSAVG
ENERGY: 0 0.0386 3.9012 0.7256 0.0000 -10719.0485 1486.6395 0.0000 0.0000 1698.6460 -7529.0975 290.5004 -9227.7436 -7529.0975 290.5004 333.9505 418.1667 30213.6001 333.9505 418.1667
ENERGY: 300000 0.9780 2.3262 1.2704 0.0000 -10786.5644 1433.0298 0.0000 0.0000 1832.6722 -7516.2878 313.4214 -9348.9600 -7520.7515 300.1933 -101.4316 -62.9186 30060.9206 -122.8059 -69.0266
ENERGY: 600000 0.2248 4.8271 0.3758 0.0000 -10634.0751 1360.2912 0.0000 0.0000 1786.6739 -7481.6824 305.5549 -9268.3563 -7511.8937 300.2909 -852.6745 -738.9530 30221.6956 -193.1760 -120.4915
ENERGY: 900000 0.1932 2.5945 0.2013 0.0000 -10617.6187 1361.6097 0.0000 0.0000 1718.3540 -7534.6661 293.8709 -9253.0201 -7513.0348 298.7389 -682.4373 -642.9354 30166.4865 -200.8243 -130.0857
ENERGY: 1200000 0.7562 5.4834 0.7509 0.0000 -10618.5341 1405.1745 0.0000 0.0000 1720.2497 -7486.1194 294.1951 -9206.3691 -7500.7612 297.7585 -118.3185 -124.8336 30234.8706 -169.3124 -107.6219
ENERGY: 1500000 0.8235 2.1084 0.0286 0.0000 -10649.2006 1419.7827 0.0000 0.0000 1755.4371 -7471.0203 300.2128 -9226.4574 -7502.9780 298.2951 -440.9386 -359.4814 30624.6585 -154.6524 -87.7593
TCL: Running FEP window   4: Lambda1 0.8499999999999999 Lambda2 0.7999999999999998 [dLambda -0.050000000000000044]
TCL: Setting parameter firsttimestep to 0
TCL: Setting parameter alchLambda to 0.8499999999999999
Info: NONBONDED TABLE R-SQUARED SPACING: 0.0625
Info: NONBONDED TABLE SIZE: 705 POINTS
TCL: Setting parameter alchLambda2 to 0.7999999999999998
Info: NONBONDED TABLE R-SQUARED SPACING: 0.0625
Info: NONBONDED TABLE SIZE: 705 POINTS
TCL: Running for 1500000 steps
ETITLE: TS BOND ANGLE DIHED IMPRP ELECT VDW BOUNDARY MISC KINETIC TOTAL TEMP POTENTIAL TOTALAVG TEMPAVG PRESSURE GPRESSURE VOLUME PRESSAVG GPRESSAVG
ENERGY: 0 0.8235 2.1084 0.0286 0.0000 -10648.3546 1418.9655 0.0000 0.0000 1754.5564 -7471.8723 300.0622 -9226.4287 -7471.8723 300.0622 -462.1009 -375.2684 30624.6585 -462.1009 -375.2684
ENERGY: 300000 0.2079 2.8314 0.4882 0.0000 -10617.4332 1399.2922 0.0000 0.0000 1735.8423 -7478.7712 296.8617 -9214.6135 -7476.8458 297.1148 -402.6338 -360.6960 30583.7514 -460.4629 -407.5938
ENERGY: 600000 1.9105 1.4535 0.4754 0.0000 -10825.0389 1571.2947 0.0000 0.0000 1709.1634 -7540.7413 292.2991 -9249.9047 -7470.5972 297.9674 685.5353 786.1677 30330.4088 -223.3141 -164.1423
ENERGY: 900000 0.1199 2.1992 0.1635 0.0000 -10562.3050 1352.4863 0.0000 0.0000 1726.7019 -7480.6342 295.2985 -9207.3361 -7480.5705 297.6684 -624.4717 -517.1832 30266.7214 -288.8358 -227.5887
ENERGY: 1200000 0.0155 2.0959 1.2721 0.0000 -10709.3884 1488.6257 0.0000 0.0000 1782.6509 -7434.7283 304.8669 -9217.3792 -7467.9114 299.6258 545.6777 627.4944 30038.5608 -142.2718 -84.2992
ENERGY: 1500000 0.0271 1.2483 0.3442 0.0000 -10599.9975 1428.3540 0.0000 0.0000 1806.1588 -7363.8652 308.8871 -9170.0240 -7471.0821 300.1570 -202.8625 -78.2325 30792.5926 -139.9084 -86.3415
TCL: Running FEP window   5: Lambda1 0.7999999999999998 Lambda2 0.7499999999999998 [dLambda -0.050000000000000044]
TCL: Setting parameter firsttimestep to 0
TCL: Setting parameter alchLambda to 0.7999999999999998
Info: NONBONDED TABLE R-SQUARED SPACING: 0.0625
Info: NONBONDED TABLE SIZE: 705 POINTS
TCL: Setting parameter alchLambda2 to 0.7499999999999998
Info: NONBONDED TABLE R-SQUARED SPACING: 0.0625
Info: NONBONDED TABLE SIZE: 705 POINTS
TCL: Running for 1500000 steps
ETITLE: TS BOND ANGLE DIHED IMPRP ELECT VDW BOUNDARY MISC KINETIC TOTAL TEMP POTENTIAL TOTALAVG TEMPAVG PRESSURE GPRESSURE VOLUME PRESSAVG GPRESSAVG
ENERGY: 0 0.0271 1.2483 0.3442 0.0000 -10598.6370 1427.5096 0.0000 0.0000 1805.2960 -7364.2119 308.7396 -9169.5078 -7364.2119 308.7396 -180.2058 -88.6101 30792.5926 -180.2058 -88.6101
ENERGY: 300000 0.8725 3.5832 0.1706 0.0000 -10694.1824 1440.5090 0.0000 0.0000 1748.7360 -7500.3111 299.0668 -9249.0472 -7445.3272 304.2461 -178.4775 -159.4916 30488.5083 -189.5737 -135.6612
ENERGY: 600000 3.0439 3.0538 0.3942 0.0000 -10623.2730 1410.7964 0.0000 0.0000 1751.2519 -7454.7328 299.4970 -9205.9846 -7452.7643 303.4696 332.4544 322.9458 29670.4398 41.9411 93.3167
ENERGY: 900000 0.0061 5.6138 0.5885 0.0000 -10777.3698 1479.3729 0.0000 0.0000 1723.0330 -7568.7553 294.6711 -9291.7884 -7472.7869 300.6532 199.1282 298.0822 29840.1937 45.7785 107.1742
ENERGY: 1200000 0.4570 5.3452 0.3873 0.0000 -10610.3219 1338.6904 0.0000 0.0000 1748.6816 -7516.7605 299.0575 -9265.4421 -7476.3093 300.1700 -759.3700 -734.6042 30239.1230 -31.1052 22.0490
ENERGY: 1500000 0.4293 2.9959 0.1776 0.0000 -10661.2563 1365.9582 0.0000 0.0000 1754.5408 -7537.1545 300.0595 -9291.6952 -7476.4304 301.2024 -518.0477 -453.3415 29955.1815 -61.1788 -0.4090
TCL: Running FEP window   6: Lambda1 0.7499999999999998 Lambda2 0.6999999999999997 [dLambda -0.050000000000000044]
TCL: Setting parameter firsttimestep to 0
TCL: Setting parameter alchLambda to 0.7499999999999998
Info: NONBONDED TABLE R-SQUARED SPACING: 0.0625
Info: NONBONDED TABLE SIZE: 705 POINTS
TCL: Setting parameter alchLambda2 to 0.6999999999999997
Info: NONBONDED TABLE R-SQUARED SPACING: 0.0625
Info: NONBONDED TABLE SIZE: 705 POINTS
TCL: Running for 1500000 steps
ETITLE: TS BOND ANGLE DIHED IMPRP ELECT VDW BOUNDARY MISC KINETIC TOTAL TEMP POTENTIAL TOTALAVG TEMPAVG PRESSURE GPRESSURE VOLUME PRESSAVG GPRESSAVG
ENERGY: 0 0.4293 2.9959 0.1776 0.0000 -10660.0484 1365.4517 0.0000 0.0000 1753.6553 -7537.3385 299.9081 -9290.9938 -7537.3385 299.9081 -541.6088 -462.5823 29955.1815 -541.6088 -462.5823
ENERGY: 300000 1.1880 2.2568 0.4692 0.0000 -10655.5567 1368.6860 0.0000 0.0000 1806.5066 -7476.4501 308.9466 -9282.9567 -7508.8774 302.8319 -808.9384 -700.9594 30522.8844 -661.6260 -563.7221
ENERGY: 600000 0.9377 2.6966 0.6770 0.0000 -10671.2802 1438.4711 0.0000 0.0000 1770.6896 -7457.8083 302.8213 -9228.4978 -7495.1330 301.1642 237.1414 269.0338 30053.5344 -277.5138 -197.4875
ENERGY: 900000 0.2814 2.0796 0.5150 0.0000 -10806.1243 1527.3219 0.0000 0.0000 1760.0538 -7515.8727 301.0023 -9275.9265 -7505.9802 299.5827 815.3985 861.4093 29793.0527 -168.1710 -101.9337
ENERGY: 1200000 0.2242 9.5093 0.7075 0.0000 -10804.1412 1466.4410 0.0000 0.0000 1767.8797 -7559.3796 302.3407 -9327.2593 -7501.0708 300.2795 161.5550 207.7158 29896.7647 -149.0203 -87.1078
ENERGY: 1500000 0.8199 4.1397 0.8620 0.0000 -10726.9928 1474.5772 0.0000 0.0000 1812.7220 -7433.8722 310.0096 -9246.5942 -7490.3655 300.9463 268.8651 291.1323 29962.9945 -50.3418 9.6187
TCL: Running FEP window   7: Lambda1 0.6999999999999997 Lambda2 0.6499999999999997 [dLambda -0.050000000000000044]
TCL: Setting parameter firsttimestep to 0
TCL: Setting parameter alchLambda to 0.6999999999999997
Info: NONBONDED TABLE R-SQUARED SPACING: 0.0625
Info: NONBONDED TABLE SIZE: 705 POINTS
TCL: Setting parameter alchLambda2 to 0.6499999999999997
Info: NONBONDED TABLE R-SQUARED SPACING: 0.0625
Info: NONBONDED TABLE SIZE: 705 POINTS
TCL: Running for 1500000 steps
ETITLE: TS BOND ANGLE DIHED IMPRP ELECT VDW BOUNDARY MISC KINETIC TOTAL TEMP POTENTIAL TOTALAVG TEMPAVG PRESSURE GPRESSURE VOLUME PRESSAVG GPRESSAVG
ENERGY: 0 0.8199 4.1397 0.8620 0.0000 -10726.9133 1474.3319 0.0000 0.0000 1811.8297 -7434.9303 309.8570 -9246.7600 -7434.9303 309.8570 207.0285 284.1623 29962.9945 207.0285 284.1623
ENERGY: 300000 0.4328 4.4092 0.5766 0.0000 -10650.1309 1436.1180 0.0000 0.0000 1757.8011 -7450.7933 300.6171 -9208.5944 -7429.8844 302.7603 -120.3478 44.1199 30195.8071 109.5247 180.0605
ENERGY: 600000 0.6470 5.3753 1.3137 0.0000 -10599.9855 1410.7152 0.0000 0.0000 1743.2030 -7438.7312 298.1205 -9181.9342 -7438.8471 302.6229 -257.0765 -216.0910 30535.7829 62.8516 120.2794
ENERGY: 900000 0.4088 2.7314 0.7231 0.0000 -10716.1438 1421.6181 0.0000 0.0000 1774.8110 -7515.8515 303.5261 -9290.6625 -7470.6928 301.4073 -187.4667 -142.6761 30086.5302 -9.5644 46.0184
ENERGY: 1200000 0.3320 1.9883 0.0540 0.0000 -10483.5360 1300.3066 0.0000 0.0000 1777.3865 -7403.4684 303.9665 -9180.8549 -7458.1509 301.6500 -1266.8537 -1126.3729 30779.7631 -203.9284 -139.6916
ENERGY: 1500000 0.7919 3.5596 0.4202 0.0000 -10686.3906 1407.3547 0.0000 0.0000 1775.1193 -7499.1449 303.5788 -9274.2642 -7454.2913 301.9422 -243.4451 -195.4593 30090.8888 -142.2978 -83.1659
TCL: Running FEP window   8: Lambda1 0.6499999999999997 Lambda2 0.5999999999999996 [dLambda -0.050000000000000044]
TCL: Setting parameter firsttimestep to 0
TCL: Setting parameter alchLambda to 0.6499999999999997
Info: NONBONDED TABLE R-SQUARED SPACING: 0.0625
Info: NONBONDED TABLE SIZE: 705 POINTS
TCL: Setting parameter alchLambda2 to 0.5999999999999996
Info: NONBONDED TABLE R-SQUARED SPACING: 0.0625
Info: NONBONDED TABLE SIZE: 705 POINTS
TCL: Running for 1500000 steps
ETITLE: TS BOND ANGLE DIHED IMPRP ELECT VDW BOUNDARY MISC KINETIC TOTAL TEMP POTENTIAL TOTALAVG TEMPAVG PRESSURE GPRESSURE VOLUME PRESSAVG GPRESSAVG
ENERGY: 0 0.7919 3.5596 0.4202 0.0000 -10685.4408 1407.0933 0.0000 0.0000 1774.2437 -7499.3321 303.4291 -9273.5758 -7499.3321 303.4291 -273.9235 -202.8744 30090.8888 -273.9235 -202.8744
ENERGY: 300000 0.1885 5.6781 0.3797 0.0000 -10672.5972 1370.0105 0.0000 0.0000 1733.9237 -7562.4167 296.5336 -9296.3404 -7497.6546 299.6436 -632.7631 -601.4214 30075.1176 -141.4961 -83.3088
ENERGY: 600000 0.0523 4.4833 0.4736 0.0000 -10716.9717 1443.8753 0.0000 0.0000 1696.0457 -7572.0416 290.0557 -9268.0873 -7508.8322 297.4021 -226.3262 -200.7150 30193.3113 -122.3596 -78.7272
ENERGY: 900000 1.2018 3.1978 0.2747 0.0000 -10670.9359 1454.9959 0.0000 0.0000 1724.0018 -7487.2640 294.8368 -9211.2657 -7501.4710 296.7602 133.3928 221.8692 30314.8404 -73.7052 -32.0071
ENERGY: 1200000 0.1396 4.3915 0.3839 0.0000 -10513.6991 1330.0915 0.0000 0.0000 1757.2873 -7421.4053 300.5292 -9178.6926 -7482.7540 297.6853 -918.3045 -911.9646 30733.2529 -123.6260 -87.3503
ENERGY: 1500000 0.9757 1.7922 0.6840 0.0000 -10722.0954 1446.3665 0.0000 0.0000 1727.0522 -7545.2249 295.3584 -9272.2770 -7477.1202 298.5882 19.7394 75.8205 29900.4134 -75.8077 -31.7741
TCL: Running FEP window   9: Lambda1 0.5999999999999996 Lambda2 0.5499999999999996 [dLambda -0.050000000000000044]
TCL: Setting parameter firsttimestep to 0
TCL: Setting parameter alchLambda to 0.5999999999999996
Info: NONBONDED TABLE R-SQUARED SPACING: 0.0625
Info: NONBONDED TABLE SIZE: 705 POINTS
TCL: Setting parameter alchLambda2 to 0.5499999999999996
Info: NONBONDED TABLE R-SQUARED SPACING: 0.0625
Info: NONBONDED TABLE SIZE: 705 POINTS
TCL: Running for 1500000 steps
ETITLE: TS BOND ANGLE DIHED IMPRP ELECT VDW BOUNDARY MISC KINETIC TOTAL TEMP POTENTIAL TOTALAVG TEMPAVG PRESSURE GPRESSURE VOLUME PRESSAVG GPRESSAVG
ENERGY: 0 0.9757 1.7922 0.6840 0.0000 -10721.8541 1446.3052 0.0000 0.0000 1726.1762 -7545.9209 295.2086 -9272.0971 -7545.9209 295.2086 -14.6958 72.1493 29900.4134 -14.6958 72.1493
ENERGY: 300000 0.1564 3.6212 0.8674 0.0000 -10628.4688 1393.7907 0.0000 0.0000 1779.1408 -7450.8922 304.2666 -9230.0330 -7503.0012 300.4151 -571.6546 -481.0761 30452.6786 -142.1721 -81.3771
ENERGY: 600000 1.2761 3.0972 1.1172 0.0000 -10699.9253 1457.1129 0.0000 0.0000 1762.1089 -7475.2130 301.3538 -9237.3219 -7486.6831 300.2078 -105.4041 -55.3265 30462.1558 -122.3807 -62.8198
ENERGY: 900000 0.0069 6.5467 0.1381 0.0000 -10642.9321 1386.4946 0.0000 0.0000 1754.9475 -7494.7982 300.1291 -9249.7457 -7489.4998 301.0751 -665.8212 -569.6929 30400.9263 -249.8574 -174.1966
ENERGY: 1200000 0.8002 5.2968 0.7758 0.0000 -10775.0192 1488.9935 0.0000 0.0000 1728.5985 -7550.5545 295.6229 -9279.1530 -7497.2130 300.1568 131.6951 189.9909 30285.4705 -195.7772 -130.6742
ENERGY: 1500000 0.7303 4.8900 0.2686 0.0000 -10566.9378 1400.2682 0.0000 0.0000 1732.9066 -7427.8741 296.3597 -9160.7808 -7491.2413 300.1603 -130.1876 -54.5622 30258.6142 -208.3072 -146.3377
TCL: Running FEP window  10: Lambda1 0.5499999999999996 Lambda2 0.4999999999999996 [dLambda -0.04999999999999999]
TCL: Setting parameter firsttimestep to 0
TCL: Setting parameter alchLambda to 0.5499999999999996
Info: NONBONDED TABLE R-SQUARED SPACING: 0.0625
Info: NONBONDED TABLE SIZE: 705 POINTS
TCL: Setting parameter alchLambda2 to 0.4999999999999996
Info: NONBONDED TABLE R-SQUARED SPACING: 0.0625
Info: NONBONDED TABLE SIZE: 705 POINTS
TCL: Running for 1500000 steps
ETITLE: TS BOND ANGLE DIHED IMPRP ELECT VDW BOUNDARY MISC KINETIC TOTAL TEMP POTENTIAL TOTALAVG TEMPAVG PRESSURE GPRESSURE VOLUME PRESSAVG GPRESSAVG
ENERGY: 0 0.7303 4.8900 0.2686 0.0000 -10566.3679 1400.5602 0.0000 0.0000 1732.0462 -7427.8727 296.2125 -9159.9188 -7427.8727 296.2125 -138.1862 -56.9512 30258.6142 -138.1862 -56.9512
ENERGY: 300000 0.8352 12.7478 2.1017 0.0000 -10735.8692 1531.8550 0.0000 0.0000 1734.3665 -7453.9631 296.6093 -9188.3296 -7450.3670 300.0920 622.9153 664.6886 30480.1466 333.5423 369.9362
ENERGY: 600000 1.1570 3.0695 0.4057 0.0000 -10701.7412 1480.3787 0.0000 0.0000 1772.8160 -7443.9142 303.1849 -9216.7302 -7435.3303 302.4774 425.6208 449.7584 29839.6243 230.3560 269.7999
ENERGY: 900000 0.3813 5.3002 0.7274 0.0000 -10593.5635 1379.0072 0.0000 0.0000 1727.4489 -7480.6984 295.4263 -9208.1474 -7445.4878 302.3376 -398.7584 -318.0427 30109.9005 142.7397 195.5237
ENERGY: 1200000 0.8201 4.9446 0.3501 0.0000 -10603.3396 1412.0243 0.0000 0.0000 1753.9934 -7431.2071 299.9659 -9185.2005 -7455.0514 301.7367 13.8698 52.6304 30043.4303 154.3496 214.6226
ENERGY: 1500000 0.2255 6.1330 2.3380 0.0000 -10747.6771 1486.8449 0.0000 0.0000 1774.9364 -7477.1994 303.5475 -9252.1358 -7456.4951 302.4577 77.0378 150.2042 30408.1812 218.1989 275.6156
TCL: Running FEP window  11: Lambda1 0.4999999999999996 Lambda2 0.4499999999999996 [dLambda -0.04999999999999999]
TCL: Setting parameter firsttimestep to 0
TCL: Setting parameter alchLambda to 0.4999999999999996
Info: NONBONDED TABLE R-SQUARED SPACING: 0.0625
Info: NONBONDED TABLE SIZE: 705 POINTS
TCL: Setting parameter alchLambda2 to 0.4499999999999996
Info: NONBONDED TABLE R-SQUARED SPACING: 0.0625
Info: NONBONDED TABLE SIZE: 705 POINTS
TCL: Running for 1500000 steps
ETITLE: TS BOND ANGLE DIHED IMPRP ELECT VDW BOUNDARY MISC KINETIC TOTAL TEMP POTENTIAL TOTALAVG TEMPAVG PRESSURE GPRESSURE VOLUME PRESSAVG GPRESSAVG
ENERGY: 0 0.2255 6.1330 2.3380 0.0000 -10747.5861 1486.4629 0.0000 0.0000 1774.0389 -7478.3879 303.3940 -9252.4268 -7478.3879 303.3940 63.4563 145.0020 30408.1812 63.4563 145.0020
ENERGY: 300000 1.1479 2.5179 0.4541 0.0000 -10476.8030 1248.3492 0.0000 0.0000 1745.7997 -7478.5342 298.5646 -9224.3339 -7467.7474 302.0522 -1895.0654 -1808.4315 31068.8683 -765.8042 -682.2019
ENERGY: 600000 0.0268 2.7362 0.2357 0.0000 -10619.4620 1389.1040 0.0000 0.0000 1739.0743 -7488.2850 297.4144 -9227.3593 -7460.3121 303.2506 -368.7076 -266.8988 30066.3923 -475.5945 -400.9600
ENERGY: 900000 0.5341 3.0519 0.2330 0.0000 -10548.6328 1406.1849 0.0000 0.0000 1748.6666 -7389.9623 299.0549 -9138.6289 -7441.9580 303.1071 -79.7605 -3.2406 30374.5255 -310.1097 -236.7713
ENERGY: 1200000 0.0937 3.9345 0.1331 0.0000 -10627.9285 1428.0449 0.0000 0.0000 1756.7780 -7438.9443 300.4421 -9195.7223 -7443.6944 303.1972 189.6633 214.8524 29812.6938 -195.7767 -129.3897
ENERGY: 1500000 0.1795 4.6157 0.4127 0.0000 -10642.3380 1403.3178 0.0000 0.0000 1764.6113 -7469.2010 301.7818 -9233.8123 -7441.8763 303.0233 -89.6337 -41.1092 30030.5599 -200.3619 -130.3127
TCL: Running FEP window  12: Lambda1 0.4499999999999996 Lambda2 0.39999999999999963 [dLambda -0.04999999999999999]
TCL: Setting parameter firsttimestep to 0
TCL: Setting parameter alchLambda to 0.4499999999999996
Info: NONBONDED TABLE R-SQUARED SPACING: 0.0625
Info: NONBONDED TABLE SIZE: 705 POINTS
TCL: Setting parameter alchLambda2 to 0.39999999999999963
Info: NONBONDED TABLE R-SQUARED SPACING: 0.0625
Info: NONBONDED TABLE SIZE: 705 POINTS
TCL: Running for 1500000 steps
ETITLE: TS BOND ANGLE DIHED IMPRP ELECT VDW BOUNDARY MISC KINETIC TOTAL TEMP POTENTIAL TOTALAVG TEMPAVG PRESSURE GPRESSURE VOLUME PRESSAVG GPRESSAVG
ENERGY: 0 0.1795 4.6157 0.4127 0.0000 -10642.3368 1403.5665 0.0000 0.0000 1763.7616 -7469.8008 301.6364 -9233.5624 -7469.8008 301.6364 -132.4258 -40.6650 30030.5599 -132.4258 -40.6650
ENERGY: 300000 0.6730 3.9973 0.5210 0.0000 -10541.3852 1381.6828 0.0000 0.0000 1733.3409 -7421.1701 296.4339 -9154.5110 -7476.0797 296.9903 -540.9612 -516.7569 30744.5768 -238.2315 -195.7188
ENERGY: 600000 0.2287 3.2404 0.3287 0.0000 -10616.1623 1420.6143 0.0000 0.0000 1774.3988 -7417.3515 303.4556 -9191.7503 -7484.0309 297.4187 -179.1447 -80.3858 30360.9686 -171.3515 -109.3421
ENERGY: 900000 0.5172 4.2527 0.9602 0.0000 -10604.6019 1439.3615 0.0000 0.0000 1740.6802 -7418.8300 297.6891 -9159.5102 -7475.8112 298.1670 120.6892 236.2348 30277.3975 -57.3915 1.3083
ENERGY: 1200000 0.2840 3.2759 0.1674 0.0000 -10628.2483 1378.5464 0.0000 0.0000 1784.1323 -7461.8422 305.1202 -9245.9745 -7478.2155 298.7745 -377.0434 -329.9067 29917.1250 -86.3883 -33.4938
ENERGY: 1500000 0.3144 2.0340 0.7396 0.0000 -10528.6304 1374.2338 0.0000 0.0000 1745.3117 -7405.9969 298.4812 -9151.3086 -7467.0037 299.1490 -211.8978 -118.4547 30287.8599 -89.6905 -29.6161
TCL: Running FEP window  13: Lambda1 0.39999999999999963 Lambda2 0.34999999999999964 [dLambda -0.04999999999999999]
TCL: Setting parameter firsttimestep to 0
TCL: Setting parameter alchLambda to 0.39999999999999963
Info: NONBONDED TABLE R-SQUARED SPACING: 0.0625
Info: NONBONDED TABLE SIZE: 705 POINTS
TCL: Setting parameter alchLambda2 to 0.34999999999999964
Info: NONBONDED TABLE R-SQUARED SPACING: 0.0625
Info: NONBONDED TABLE SIZE: 705 POINTS
TCL: Running for 1500000 steps
ETITLE: TS BOND ANGLE DIHED IMPRP ELECT VDW BOUNDARY MISC KINETIC TOTAL TEMP POTENTIAL TOTALAVG TEMPAVG PRESSURE GPRESSURE VOLUME PRESSAVG GPRESSAVG
ENERGY: 0 0.3144 2.0340 0.7396 0.0000 -10528.6305 1374.0884 0.0000 0.0000 1744.4385 -7407.0155 298.3318 -9151.4540 -7407.0155 298.3318 -201.2027 -121.7473 30287.8599 -201.2027 -121.7473
ENERGY: 300000 1.1401 2.9025 0.6372 0.0000 -10651.2491 1425.8361 0.0000 0.0000 1733.9063 -7486.8270 296.5306 -9220.7332 -7425.1543 300.4273 -55.5332 -58.6516 30337.3125 -188.1887 -152.7322
ENERGY: 600000 0.2424 6.7249 0.7129 0.0000 -10630.2646 1476.7081 0.0000 0.0000 1779.7425 -7366.1339 304.3695 -9145.8764 -7439.1958 299.8028 659.7176 728.0850 30057.6849 -130.1497 -90.9573
ENERGY: 900000 0.8885 2.5214 0.9175 0.0000 -10674.2453 1403.8424 0.0000 0.0000 1756.0259 -7510.0496 300.3135 -9266.0755 -7446.3946 301.2781 -440.1182 -378.2960 30146.4270 -107.0586 -62.4209
ENERGY: 1200000 0.5570 0.9340 1.7077 0.0000 -10633.0982 1405.0859 0.0000 0.0000 1743.3007 -7481.5129 298.1372 -9224.8136 -7455.8476 300.3352 -290.6492 -235.9037 30199.2474 -138.1818 -94.3039
ENERGY: 1500000 0.0089 5.6964 0.4057 0.0000 -10603.1003 1337.1758 0.0000 0.0000 1795.0216 -7464.7919 306.9825 -9259.8135 -7451.1382 301.0024 -957.8099 -861.8051 30365.3382 -198.2365 -150.6702
TCL: Running FEP window  14: Lambda1 0.34999999999999964 Lambda2 0.29999999999999966 [dLambda -0.04999999999999999]
TCL: Setting parameter firsttimestep to 0
TCL: Setting parameter alchLambda to 0.34999999999999964
Info: NONBONDED TABLE R-SQUARED SPACING: 0.0625
Info: NONBONDED TABLE SIZE: 705 POINTS
TCL: Setting parameter alchLambda2 to 0.29999999999999966
Info: NONBONDED TABLE R-SQUARED SPACING: 0.0625
Info: NONBONDED TABLE SIZE: 705 POINTS
TCL: Running for 1500000 steps
ETITLE: TS BOND ANGLE DIHED IMPRP ELECT VDW BOUNDARY MISC KINETIC TOTAL TEMP POTENTIAL TOTALAVG TEMPAVG PRESSURE GPRESSURE VOLUME PRESSAVG GPRESSAVG
ENERGY: 0 0.0089 5.6964 0.4057 0.0000 -10603.1004 1337.4412 0.0000 0.0000 1794.1364 -7465.4119 306.8311 -9259.5483 -7465.4119 306.8311 -957.2544 -862.5804 30365.3382 -957.2544 -862.5804
ENERGY: 300000 0.3400 3.6011 0.8148 0.0000 -10537.1438 1366.0725 0.0000 0.0000 1772.1763 -7394.1390 303.0755 -9166.3153 -7421.7913 306.0244 -554.1405 -492.6795 30619.4016 -308.3075 -214.4934
ENERGY: 600000 0.0264 4.7139 0.7489 0.0000 -10619.4472 1377.5033 0.0000 0.0000 1739.9087 -7496.5460 297.5571 -9236.4547 -7441.8845 302.8581 -592.4175 -527.5899 30154.5045 -482.7323 -402.7536
ENERGY: 900000 0.1964 3.1408 0.1448 0.0000 -10542.7543 1388.6923 0.0000 0.0000 1795.5889 -7354.9911 307.0795 -9150.5800 -7446.3442 301.7760 -215.9767 -127.9805 30211.7785 -427.3299 -356.2474
ENERGY: 1200000 1.1437 3.5882 0.4118 0.0000 -10837.7058 1545.7929 0.0000 0.0000 1718.0205 -7568.7485 293.8139 -9286.7691 -7457.1027 301.2039 518.5911 613.2968 30117.3161 -289.3627 -222.3936
ENERGY: 1500000 0.3742 2.6277 0.1487 0.0000 -10643.8661 1390.6258 0.0000 0.0000 1817.5194 -7432.5703 310.8300 -9250.0897 -7448.4607 301.9640 -480.2041 -458.0627 30441.2619 -273.9107 -209.3773
TCL: Running FEP window  15: Lambda1 0.29999999999999966 Lambda2 0.24999999999999967 [dLambda -0.04999999999999999]
TCL: Setting parameter firsttimestep to 0
TCL: Setting parameter alchLambda to 0.29999999999999966
Info: NONBONDED TABLE R-SQUARED SPACING: 0.0625
Info: NONBONDED TABLE SIZE: 705 POINTS
TCL: Setting parameter alchLambda2 to 0.24999999999999967
Info: NONBONDED TABLE R-SQUARED SPACING: 0.0625
Info: NONBONDED TABLE SIZE: 705 POINTS
TCL: Running for 1500000 steps
ETITLE: TS BOND ANGLE DIHED IMPRP ELECT VDW BOUNDARY MISC KINETIC TOTAL TEMP POTENTIAL TOTALAVG TEMPAVG PRESSURE GPRESSURE VOLUME PRESSAVG GPRESSAVG
ENERGY: 0 0.3742 2.6277 0.1487 0.0000 -10643.8666 1390.3551 0.0000 0.0000 1816.6642 -7433.6967 310.6838 -9250.3609 -7433.6967 310.6838 -537.8363 -464.8899 30441.2619 -537.8363 -464.8899
ENERGY: 300000 0.1988 5.1121 0.6331 0.0000 -10625.7694 1474.4224 0.0000 0.0000 1762.8532 -7382.5498 301.4811 -9145.4030 -7438.2157 302.5445 220.5353 222.3739 30683.9465 -36.5000 -32.2100
ENERGY: 600000 0.4744 8.8859 0.4321 0.0000 -10840.0829 1535.6853 0.0000 0.0000 1807.2052 -7487.3999 309.0661 -9294.6052 -7456.7700 301.3292 517.6432 581.2226 30309.1991 128.3411 144.1806
ENERGY: 900000 0.1365 6.7192 2.7449 0.0000 -10740.6576 1468.9143 0.0000 0.0000 1707.1083 -7555.0344 291.9476 -9262.1427 -7461.0139 301.1168 174.4262 265.2056 30122.0473 109.0612 136.2262
ENERGY: 1200000 1.4771 2.8565 0.7677 0.0000 -10642.5061 1420.5574 0.0000 0.0000 1732.8664 -7483.9809 296.3528 -9216.8473 -7464.3431 300.2477 -208.7340 -68.2629 30464.5295 74.3392 117.2895
ENERGY: 1500000 0.1793 6.5460 0.3931 0.0000 -10602.5467 1394.0068 0.0000 0.0000 1698.0622 -7503.3593 290.4006 -9201.4215 -7471.4887 299.1813 -515.2903 -428.6052 30693.3576 31.0442 78.3940
TCL: Running FEP window  16: Lambda1 0.24999999999999967 Lambda2 0.19999999999999968 [dLambda -0.04999999999999999]
TCL: Setting parameter firsttimestep to 0
TCL: Setting parameter alchLambda to 0.24999999999999967
Info: NONBONDED TABLE R-SQUARED SPACING: 0.0625
Info: NONBONDED TABLE SIZE: 705 POINTS
TCL: Setting parameter alchLambda2 to 0.19999999999999968
Info: NONBONDED TABLE R-SQUARED SPACING: 0.0625
Info: NONBONDED TABLE SIZE: 705 POINTS
TCL: Running for 1500000 steps
ETITLE: TS BOND ANGLE DIHED IMPRP ELECT VDW BOUNDARY MISC KINETIC TOTAL TEMP POTENTIAL TOTALAVG TEMPAVG PRESSURE GPRESSURE VOLUME PRESSAVG GPRESSAVG
ENERGY: 0 0.1793 6.5460 0.3931 0.0000 -10602.5478 1393.3996 0.0000 0.0000 1697.1769 -7504.8529 290.2492 -9202.0299 -7504.8529 290.2492 -523.4945 -434.7461 30693.3576 -523.4945 -434.7461
ENERGY: 300000 1.1717 0.8850 1.8103 0.0000 -10689.2229 1407.0327 0.0000 0.0000 1715.6217 -7562.7014 293.4036 -9278.3231 -7511.3670 293.9530 -539.7862 -467.7709 30352.7152 -235.5839 -159.4912
ENERGY: 600000 0.5572 6.1568 0.7196 0.0000 -10606.8298 1396.6902 0.0000 0.0000 1719.8752 -7482.8308 294.1310 -9202.7060 -7483.4741 295.7657 -263.8606 -148.4445 30124.6435 -206.9374 -131.4184
ENERGY: 900000 0.4111 4.9005 0.0735 0.0000 -10711.7907 1444.0443 0.0000 0.0000 1775.2226 -7487.1386 303.5965 -9262.3612 -7467.3357 298.9087 -120.7046 -47.6185 30216.4060 -71.0542 1.5965
ENERGY: 1200000 0.3762 4.9891 0.5947 0.0000 -10757.9359 1451.7693 0.0000 0.0000 1727.7519 -7572.4546 295.4781 -9300.2065 -7477.6818 298.6020 30.9303 97.1146 29876.3273 -29.1356 45.8677
ENERGY: 1500000 0.1745 4.2265 1.5641 0.0000 -10538.9573 1378.7359 0.0000 0.0000 1763.0302 -7391.2262 301.5113 -9154.2564 -7469.7561 299.0415 -369.2867 -372.2177 30592.5349 -50.3371 19.8588
TCL: Running FEP window  17: Lambda1 0.19999999999999968 Lambda2 0.1499999999999997 [dLambda -0.04999999999999999]
TCL: Setting parameter firsttimestep to 0
TCL: Setting parameter alchLambda to 0.19999999999999968
Info: NONBONDED TABLE R-SQUARED SPACING: 0.0625
Info: NONBONDED TABLE SIZE: 705 POINTS
TCL: Setting parameter alchLambda2 to 0.1499999999999997
Info: NONBONDED TABLE R-SQUARED SPACING: 0.0625
Info: NONBONDED TABLE SIZE: 705 POINTS
TCL: Running for 1500000 steps
ETITLE: TS BOND ANGLE DIHED IMPRP ELECT VDW BOUNDARY MISC KINETIC TOTAL TEMP POTENTIAL TOTALAVG TEMPAVG PRESSURE GPRESSURE VOLUME PRESSAVG GPRESSAVG
ENERGY: 0 0.1745 4.2265 1.5641 0.0000 -10538.9558 1379.0074 0.0000 0.0000 1762.1482 -7391.8351 301.3605 -9153.9833 -7391.8351 301.3605 -451.5404 -371.6096 30592.5349 -451.5404 -371.6096
ENERGY: 300000 0.4527 3.7248 0.5319 0.0000 -10696.5395 1444.3073 0.0000 0.0000 1791.6734 -7455.8493 306.4099 -9247.5227 -7450.7694 303.0933 230.3547 242.4414 29794.8118 -86.8979 -41.5077
ENERGY: 600000 0.1358 5.1981 1.7151 0.0000 -10659.8933 1388.3456 0.0000 0.0000 1743.6938 -7520.8049 298.2045 -9264.4987 -7456.2345 300.4083 -471.1518 -414.1781 29884.3685 -171.6351 -114.5535
ENERGY: 900000 0.2416 4.3456 0.5033 0.0000 -10712.8337 1475.6242 0.0000 0.0000 1754.0541 -7478.0649 299.9763 -9232.1189 -7448.7346 300.1562 78.6450 154.1068 30363.5204 -55.3732 3.7086
ENERGY: 1200000 1.2268 5.4329 1.3737 0.0000 -10559.0544 1340.1895 0.0000 0.0000 1779.8730 -7430.9587 304.3918 -9210.8316 -7458.9182 299.9504 -915.5500 -869.8639 30466.3873 -118.0852 -61.0055
ENERGY: 1500000 2.2128 3.4505 0.6364 0.0000 -10630.1171 1410.7319 0.0000 0.0000 1745.1022 -7467.9833 298.4453 -9213.0855 -7459.5434 299.7974 -240.1251 -111.2028 30075.1293 -119.7026 -57.0153
TCL: Running FEP window  18: Lambda1 0.1499999999999997 Lambda2 0.09999999999999969 [dLambda -0.05 ]
TCL: Setting parameter firsttimestep to 0
TCL: Setting parameter alchLambda to 0.1499999999999997
Info: NONBONDED TABLE R-SQUARED SPACING: 0.0625
Info: NONBONDED TABLE SIZE: 705 POINTS
TCL: Setting parameter alchLambda2 to 0.09999999999999969
Info: NONBONDED TABLE R-SQUARED SPACING: 0.0625
Info: NONBONDED TABLE SIZE: 705 POINTS
TCL: Running for 1500000 steps
ETITLE: TS BOND ANGLE DIHED IMPRP ELECT VDW BOUNDARY MISC KINETIC TOTAL TEMP POTENTIAL TOTALAVG TEMPAVG PRESSURE GPRESSURE VOLUME PRESSAVG GPRESSAVG
ENERGY: 0 2.2128 3.4505 0.6364 0.0000 -10630.1178 1409.9721 0.0000 0.0000 1744.2343 -7469.6117 298.2969 -9213.8460 -7469.6117 298.2969 -201.2423 -115.0008 30075.1293 -201.2423 -115.0008
ENERGY: 300000 1.6681 3.6800 1.8516 0.0000 -10780.6941 1486.9870 0.0000 0.0000 1719.4473 -7567.0602 294.0579 -9286.5075 -7520.1596 297.8806 324.6726 332.5570 29817.5093 159.3490 191.1719
ENERGY: 600000 0.0212 2.9382 2.0591 0.0000 -10671.7286 1428.8915 0.0000 0.0000 1766.0841 -7471.7345 302.0336 -9237.8186 -7504.8065 298.9757 77.6590 68.2676 29962.2373 -23.4697 10.9047
ENERGY: 900000 1.1380 3.2445 0.6999 0.0000 -10558.5170 1429.5109 0.0000 0.0000 1753.3377 -7370.5859 299.8537 -9123.9236 -7482.9358 298.3385 -65.5384 28.0806 30758.3220 -2.0855 38.7798
ENERGY: 1200000 0.6745 3.8942 0.5091 0.0000 -10620.0764 1393.4132 0.0000 0.0000 1789.7390 -7431.8464 306.0791 -9221.5854 -7483.9657 299.3152 -149.6006 -124.9188 30104.7655 -113.5262 -69.6046
ENERGY: 1500000 0.1226 3.9651 0.6081 0.0000 -10703.1859 1488.0441 0.0000 0.0000 1795.3503 -7415.0957 307.0387 -9210.4460 -7477.0058 300.1677 599.8323 728.1158 29679.0062 -106.7629 -54.6037
TCL: Running FEP window  19: Lambda1 0.09999999999999969 Lambda2 0.049999999999999684 [dLambda -0.05 ]
TCL: Setting parameter firsttimestep to 0
TCL: Setting parameter alchLambda to 0.09999999999999969
Info: NONBONDED TABLE R-SQUARED SPACING: 0.0625
Info: NONBONDED TABLE SIZE: 705 POINTS
TCL: Setting parameter alchLambda2 to 0.049999999999999684
Info: NONBONDED TABLE R-SQUARED SPACING: 0.0625
Info: NONBONDED TABLE SIZE: 705 POINTS
TCL: Running for 1500000 steps
ETITLE: TS BOND ANGLE DIHED IMPRP ELECT VDW BOUNDARY MISC KINETIC TOTAL TEMP POTENTIAL TOTALAVG TEMPAVG PRESSURE GPRESSURE VOLUME PRESSAVG GPRESSAVG
ENERGY: 0 0.1226 3.9651 0.6081 0.0000 -10703.1866 1488.1450 0.0000 0.0000 1794.4658 -7415.8800 306.8874 -9210.3458 -7415.8800 306.8874 642.9939 728.6941 29679.0062 642.9939 728.6941
ENERGY: 300000 0.7232 2.2177 2.1101 0.0000 -10569.0355 1356.0941 0.0000 0.0000 1693.6743 -7514.2162 289.6502 -9207.8905 -7474.7192 298.4979 -771.8744 -690.2822 30587.1645 58.9517 116.2504
ENERGY: 600000 0.4650 3.5733 1.1804 0.0000 -10571.6257 1389.3329 0.0000 0.0000 1725.3340 -7451.7400 295.0646 -9177.0740 -7471.5979 298.3971 -399.0790 -315.9730 30207.5314 -115.8075 -47.0262
ENERGY: 900000 0.7021 4.2516 0.2766 0.0000 -10612.6005 1456.2022 0.0000 0.0000 1744.1060 -7407.0619 298.2750 -9151.1679 -7463.6297 298.4106 -239.8990 -126.9870 31114.1634 -113.9720 -46.2484
ENERGY: 1200000 0.6424 7.8947 0.7919 0.0000 -10561.1477 1351.6497 0.0000 0.0000 1729.1839 -7470.9850 295.7230 -9200.1690 -7463.1271 299.2963 -813.9698 -731.3664 30277.5523 -160.4255 -94.6501
ENERGY: 1500000 0.2028 2.6051 0.7335 0.0000 -10643.1484 1455.2276 0.0000 0.0000 1754.7033 -7429.6761 300.0873 -9184.3794 -7458.0859 299.8999 138.6340 166.4617 30529.4026 -131.4776 -66.9171
TCL: Running FEP window  20: Lambda1 0.049999999999999684 Lambda2 0.0    [dLambda -0.049999999999999684]
TCL: Setting parameter firsttimestep to 0
TCL: Setting parameter alchLambda to 0.049999999999999684
Info: NONBONDED TABLE R-SQUARED SPACING: 0.0625
Info: NONBONDED TABLE SIZE: 705 POINTS
TCL: Setting parameter alchLambda2 to 0.0
Info: NONBONDED TABLE R-SQUARED SPACING: 0.0625
Info: NONBONDED TABLE SIZE: 705 POINTS
TCL: Running for 1500000 steps
ETITLE: TS BOND ANGLE DIHED IMPRP ELECT VDW BOUNDARY MISC KINETIC TOTAL TEMP POTENTIAL TOTALAVG TEMPAVG PRESSURE GPRESSURE VOLUME PRESSAVG GPRESSAVG
ENERGY: 0 0.2028 2.6051 0.7335 0.0000 -10643.1490 1454.7534 0.0000 0.0000 1753.8425 -7431.0117 299.9401 -9184.8542 -7431.0117 299.9401 79.1418 160.9974 30529.4026 79.1418 160.9974
ENERGY: 300000 0.5677 4.6122 0.8238 0.0000 -10690.6942 1434.3333 0.0000 0.0000 1761.4633 -7488.8940 301.2434 -9250.3572 -7490.1850 297.9404 61.6992 81.9101 29951.6228 119.8196 180.2281
ENERGY: 600000 1.2820 5.5230 0.7225 0.0000 -10555.5525 1365.6045 0.0000 0.0000 1771.7032 -7410.7174 302.9946 -9182.4206 -7477.0670 300.3494 -514.1898 -483.0054 30204.3390 -107.5304 -53.2653
ENERGY: 900000 0.0812 8.0175 0.2692 0.0000 -10656.4357 1383.3530 0.0000 0.0000 1721.4629 -7543.2519 294.4026 -9264.7148 -7488.1661 299.1565 -561.7402 -531.1836 30489.4902 -127.5527 -81.4103
ENERGY: 1200000 0.4106 3.6964 0.8140 0.0000 -10816.3901 1517.7029 0.0000 0.0000 1776.4257 -7517.3404 303.8022 -9293.7661 -7482.4078 299.7254 675.8201 772.3329 29587.5737 -28.0897 20.9613
ENERGY: 1500000 0.7985 2.7598 0.6367 0.0000 -10601.4057 1398.1776 0.0000 0.0000 1785.0113 -7414.0218 305.2705 -9199.0331 -7482.2363 299.9818 20.3644 23.2198 29875.7926 54.3100 100.3574
TCL: Exiting due to exit command.
