Info: SIMULATION PARAMETERS:
Info: TIMESTEP               2
Info: NUMBER OF STEPS        0
Info: STEPS PER CYCLE        10
Info: PERIODIC CELL BASIS 1  31.7682 0 0
Info: PERIODIC CELL BASIS 2  0 30.2286 0
Info: PERIODIC CELL BASIS 3  0 0 31.3809
Info: PERIODIC CELL CENTER   0 0 0
Info: WRAPPING WATERS AROUND PERIODIC BOUNDARIES ON OUTPUT.
Info: WRAPPING ALL CLUSTERS AROUND PERIODIC BOUNDARIES ON OUTPUT.
Info: FIRST LDB TIMESTEP     50
Info: LAST LDB TIMESTEP     -1
Info: HOM BACKGROUND SCALING 1
Info: PME BACKGROUND SCALING 1
Info: MIN ATOMS PER PATCH    40
Info: EMPTY PATCH LOAD       40 ATOMS
Info: VELOCITY FILE          mobley_9979854_equil.vel
Info: CENTER OF MASS MOVING INITIALLY? NO
Info: DIELECTRIC             1
Info: EXCLUDE                SCALED ONE-FOUR
Info: 1-4 ELECTROSTATICS SCALED BY 0.833333
Info: MODIFIED 1-4 VDW PARAMETERS WILL BE USED
Info: DCD FILENAME           mobley_9979854_prod.dcd
Info: DCD FREQUENCY          100000
Info: DCD FIRST STEP         100000
Info: DCD FILE WILL CONTAIN UNIT CELL DATA
Info: XST FILENAME           mobley_9979854_prod.xst
Info: XST FREQUENCY          100000
Info: NO VELOCITY DCD OUTPUT
Info: NO FORCE DCD OUTPUT
Info: OUTPUT FILENAME        mobley_9979854_prod
Info: BINARY OUTPUT FILES WILL BE USED
Info: RESTART FILENAME       mobley_9979854_prod.restart
Info: RESTART FREQUENCY      100000
Info: BINARY RESTART FILES WILL BE USED
Info: CUTOFF                 9
Info: PAIRLIST DISTANCE      11
Info: PAIRLIST SHRINK RATE   0.01
Info: PAIRLIST GROW RATE     0.01
Info: PAIRLIST TRIGGER       0.3
Info: PAIRLISTS PER CYCLE    2
Info: PAIRLISTS ENABLED
Info: MARGIN                 2
Info: HYDROGEN GROUP CUTOFF  2.5
Info: PATCH DIMENSION        15.5
Info: ENERGY OUTPUT STEPS    100000
Info: ENERGY EVALUATION STEPS    100000
Info: OUTPUT ENERGY PRECISION 4
Info: CROSSTERM ENERGY INCLUDED IN DIHEDRAL
Info: TIMING OUTPUT STEPS    1000000
Info: PRESSURE OUTPUT STEPS  100000
Info: ALCHEMICAL FEP ON
Info: FEP CURRENT LAMBDA VALUE     1
Info: FEP COMPARISON LAMBDA VALUE  0.95
Info: FEP INTRA-ALCHEMICAL NON-BONDED INTERACTIONS WILL BE RETAINED
Info: FEP INTRA-ALCHEMICAL BONDED INTERACTIONS WILL BE RETAINED
Info: FEP VDW SHIFTING COEFFICIENT 5
Info: FEP ELEC. ACTIVE FOR ANNIHILATED PARTICLES BETWEEN LAMBDA = 0 AND LAMBDA = 0.5
Info: FEP ELEC. ACTIVE FOR EXNIHILATED PARTICLES BETWEEN LAMBDA = 0.5 AND LAMBDA = 1
Info: FEP VDW ACTIVE FOR ANNIHILATED PARTICLES BETWEEN LAMBDA = 0 AND LAMBDA = 1
Info: FEP VDW ACTIVE FOR EXNIHILATED PARTICLES BETWEEN LAMBDA = 0 AND LAMBDA = 1
Info: FEP BOND ACTIVE FOR ANNIHILATED PARTICLES BETWEEN LAMBDA = 1 AND LAMBDA = 1
Info: FEP BOND ACTIVE FOR EXNIHILATED PARTICLES BETWEEN LAMBDA = 0 AND LAMBDA = 0
Info: LANGEVIN DYNAMICS ACTIVE
Info: LANGEVIN TEMPERATURE   300
Info: LANGEVIN USING BBK INTEGRATOR
Info: LANGEVIN DAMPING COEFFICIENT IS 1 INVERSE PS
Info: LANGEVIN DYNAMICS APPLIED TO HYDROGENS
Info: LANGEVIN PISTON PRESSURE CONTROL ACTIVE
Info:        TARGET PRESSURE IS 1.01325 BAR
Info:     OSCILLATION PERIOD IS 50 FS
Info:             DECAY TIME IS 25 FS
Info:     PISTON TEMPERATURE IS 300 K
Info:       PRESSURE CONTROL IS GROUP-BASED
Info:    INITIAL STRAIN RATE IS -7.27097e-06 -7.27097e-06 -7.27097e-06
Info:       CELL FLUCTUATION IS ISOTROPIC
Info: PARTICLE MESH EWALD (PME) ACTIVE
Info: PME TOLERANCE               1e-06
Info: PME EWALD COEFFICIENT       0.348832
Info: PME INTERPOLATION ORDER     4
Info: PME GRID DIMENSIONS         32 32 32
Info: PME MAXIMUM GRID SPACING    1
Info: PME CALCULATION WILL BE PERFORMED ON GPU
Info: FULL ELECTROSTATIC EVALUATION FREQUENCY      2
Info: USING VERLET I (r-RESPA) MTS SCHEME.
Info: C1 SPLITTING OF LONG RANGE ELECTROSTATICS
Info: PLACING ATOMS IN PATCHES BY HYDROGEN GROUPS
Info: RIGID BONDS TO HYDROGEN : ALL
Info:         ERROR TOLERANCE : 1e-08
Info:          MAX ITERATIONS : 100
Info: RIGID WATER USING SETTLE ALGORITHM
Info: RANDOM NUMBER SEED     1742573740
Info: USE HYDROGEN BONDS?    NO
Info: Using AMBER format force field!
Info: AMBER PARM FILE        mobley_9979854.prmtop
Info: COORDINATE PDB         mobley_9979854.pdb
Info: Exclusions will be read from PARM file!
Info: SCNB (VDW SCALING)     2
Info: USING ARITHMETIC MEAN TO COMBINE L-J SIGMA PARAMETERS
Info: BINARY COORDINATES     mobley_9979854_equil.coor
Info: SUMMARY OF PARAMETERS:
Info: 8 BONDS
Info: 9 ANGLES
Info:   9 HARMONIC
Info:   0 COSINE-BASED
Info: 7 DIHEDRAL
Info: 0 IMPROPER
Info: 0 CROSSTERM
Info: 0 VDW
Info: 36 VDW_PAIRS
Info: 0 NBTHOLE_PAIRS
Info: To read alchdata from file: mobley_9979854.pdb
Info: To read alchflag data from column: 5
Info: STRUCTURE SUMMARY:
Info: 2910 ATOMS
Info: 2909 BONDS
Info: 19 ANGLES
Info: 24 DIHEDRALS
Info: 0 IMPROPERS
Info: 0 CROSSTERMS
Info: 2949 EXCLUSIONS
Info: 2903 RIGID BONDS
Info: ALCH: 0 ATOMS TO DISAPPEAR IN FINAL STATE
Info: ALCH: 12 ATOMS TO APPEAR IN FINAL STATE
Info: 5827 DEGREES OF FREEDOM
Info: 973 HYDROGEN GROUPS
Info: 4 ATOMS IN LARGEST HYDROGEN GROUP
Info: 973 MIGRATION GROUPS
Info: 4 ATOMS IN LARGEST MIGRATION GROUP
Info: TOTAL MASS = 17517.5 amu
Info: TOTAL CHARGE = 0.000199988 e
Info: MASS DENSITY = 0.965286 g/cm^3
Info: ATOM DENSITY = 0.0965643 atoms/A^3
Info: ADDED 0 IMPLICIT EXCLUSIONS
Info: NONBONDED TABLE R-SQUARED SPACING: 0.0625
Info: NONBONDED TABLE SIZE: 705 POINTS
Info: REMOVING COM VELOCITY 0.0507434 0.141314 0.0690237
Info: Use 3D box decompostion in PME FFT.
Info: Updated CUDA force table with 4096 elements.
Info: Updated CUDA LJ table with 8 x 8 elements.
Info: Found 15 unique exclusion lists needing 28 bytes
TCL: Running for 1500000 steps
ETITLE: TS BOND ANGLE DIHED IMPRP ELECT VDW BOUNDARY MISC KINETIC TOTAL TEMP POTENTIAL TOTALAVG TEMPAVG PRESSURE GPRESSURE VOLUME PRESSAVG GPRESSAVG
ENERGY: 0 2.0216 3.1501 1.1360 0.0000 -10518.9958 1378.7584 0.0000 0.0000 1749.6349 -7384.2949 302.1988 -9133.9297 -7384.2949 302.1988 -539.6941 -465.1258 30135.3495 -539.6941 -465.1258
ENERGY: 300000 0.9892 9.3215 0.6945 0.0000 -10424.0994 1352.2984 0.0000 0.0000 1767.0257 -7293.7701 305.2026 -9060.7958 -7326.7346 303.5598 -547.5607 -492.9103 30380.4866 -151.7956 -80.1843
ENERGY: 600000 7.2065 5.8159 0.8262 0.0000 -10466.3125 1346.2915 0.0000 0.0000 1710.4987 -7395.6737 295.4392 -9106.1725 -7343.1435 304.0513 -659.4679 -660.3044 30114.3352 -225.6313 -176.3821
ENERGY: 900000 2.1132 4.6018 1.3229 0.0000 -10454.7556 1378.8745 0.0000 0.0000 1755.3574 -7312.4858 303.1872 -9067.8432 -7366.4252 302.3477 31.6699 99.2448 29792.2436 -166.1772 -116.9335
ENERGY: 1200000 0.4659 3.9909 0.6903 0.0000 -10472.7801 1454.7964 0.0000 0.0000 1725.9763 -7286.8603 298.1125 -9012.8366 -7363.7358 301.3047 470.9473 522.0259 30151.2858 -124.6309 -69.7261
ENERGY: 1500000 1.6268 4.0479 1.5616 0.0000 -10589.1225 1460.8179 0.0000 0.0000 1745.9874 -7375.0809 301.5688 -9121.0683 -7366.5522 301.5899 287.9352 371.0706 29836.9391 -39.4393 12.9798
TCL: Running FEP window   2: Lambda1 0.95   Lambda2 0.8999999999999999 [dLambda -0.050000000000000044]
TCL: Setting parameter firsttimestep to 0
TCL: Setting parameter alchLambda to 0.95
Info: NONBONDED TABLE R-SQUARED SPACING: 0.0625
Info: NONBONDED TABLE SIZE: 705 POINTS
TCL: Setting parameter alchLambda2 to 0.8999999999999999
Info: NONBONDED TABLE R-SQUARED SPACING: 0.0625
Info: NONBONDED TABLE SIZE: 705 POINTS
TCL: Running for 1500000 steps
ETITLE: TS BOND ANGLE DIHED IMPRP ELECT VDW BOUNDARY MISC KINETIC TOTAL TEMP POTENTIAL TOTALAVG TEMPAVG PRESSURE GPRESSURE VOLUME PRESSAVG GPRESSAVG
ENERGY: 0 1.6268 4.0479 1.5616 0.0000 -10587.4710 1459.9365 0.0000 0.0000 1745.1265 -7375.1716 301.4202 -9120.2982 -7375.1716 301.4202 271.4582 350.0525 29836.9391 271.4582 350.0525
ENERGY: 300000 2.5195 6.3377 1.5688 0.0000 -10628.3604 1561.6014 0.0000 0.0000 1718.7535 -7337.5795 296.8650 -9056.3331 -7327.6984 301.1989 1209.8967 1240.7323 30022.9508 525.6475 597.1396
ENERGY: 600000 1.5217 4.1511 0.6621 0.0000 -10414.5269 1395.7121 0.0000 0.0000 1702.3334 -7310.1465 294.0289 -9012.4799 -7334.2697 303.0382 178.9058 249.3489 29871.1501 475.5620 543.8678
ENERGY: 900000 1.7053 5.9239 1.7242 0.0000 -10627.8731 1480.2231 0.0000 0.0000 1707.8288 -7430.4678 294.9781 -9138.2966 -7362.6106 300.2127 646.1109 652.1805 29553.4548 458.1395 513.8653
ENERGY: 1200000 1.6112 5.6983 1.2051 0.0000 -10517.7762 1378.0833 0.0000 0.0000 1728.6162 -7402.5621 298.5685 -9131.1783 -7370.1613 300.0842 -586.8219 -520.0488 30237.3171 326.3548 382.6420
ENERGY: 1500000 1.5330 7.7377 1.0272 0.0000 -10444.8912 1397.0433 0.0000 0.0000 1755.9462 -7281.6039 303.2889 -9037.5501 -7366.8874 300.2403 48.9154 104.9101 29890.6224 197.3890 257.0009
TCL: Running FEP window   3: Lambda1 0.8999999999999999 Lambda2 0.8499999999999999 [dLambda -0.050000000000000044]
TCL: Setting parameter firsttimestep to 0
TCL: Setting parameter alchLambda to 0.8999999999999999
Info: NONBONDED TABLE R-SQUARED SPACING: 0.0625
Info: NONBONDED TABLE SIZE: 705 POINTS
TCL: Setting parameter alchLambda2 to 0.8499999999999999
Info: NONBONDED TABLE R-SQUARED SPACING: 0.0625
Info: NONBONDED TABLE SIZE: 705 POINTS
TCL: Running for 1500000 steps
ETITLE: TS BOND ANGLE DIHED IMPRP ELECT VDW BOUNDARY MISC KINETIC TOTAL TEMP POTENTIAL TOTALAVG TEMPAVG PRESSURE GPRESSURE VOLUME PRESSAVG GPRESSAVG
ENERGY: 0 1.5330 7.7377 1.0272 0.0000 -10443.5804 1397.1054 0.0000 0.0000 1755.0748 -7281.1023 303.1384 -9036.1772 -7281.1023 303.1384 18.1817 105.8768 29890.6224 18.1817 105.8768
ENERGY: 300000 1.6290 4.4145 1.0284 0.0000 -10609.7847 1449.9960 0.0000 0.0000 1741.5655 -7411.1513 300.8051 -9152.7168 -7341.6220 302.7962 55.3201 104.5680 30209.3562 115.6689 195.2111
ENERGY: 600000 2.8260 8.8495 0.7573 0.0000 -10503.1185 1399.1836 0.0000 0.0000 1730.4752 -7361.0269 298.8896 -9091.5021 -7340.1401 300.9173 92.7075 151.2320 29340.2889 33.8495 99.8909
ENERGY: 900000 1.2421 6.5825 1.3480 0.0000 -10610.3337 1449.6357 0.0000 0.0000 1729.4411 -7422.0844 298.7109 -9151.5254 -7344.3031 301.2269 130.7338 143.4757 29753.8366 -71.7290 -6.5826
ENERGY: 1200000 2.9429 5.0998 2.4383 0.0000 -10504.1179 1391.7912 0.0000 0.0000 1785.1179 -7316.7277 308.3275 -9101.8456 -7344.4211 301.7814 -188.5929 -141.2637 29942.2347 -160.3065 -88.7454
ENERGY: 1500000 1.7995 4.7161 0.9660 0.0000 -10422.4513 1349.5453 0.0000 0.0000 1725.2964 -7340.1278 297.9951 -9065.4243 -7352.9181 300.5680 -376.6597 -342.1241 29738.6448 -173.9416 -108.1013
TCL: Running FEP window   4: Lambda1 0.8499999999999999 Lambda2 0.7999999999999998 [dLambda -0.050000000000000044]
TCL: Setting parameter firsttimestep to 0
TCL: Setting parameter alchLambda to 0.8499999999999999
Info: NONBONDED TABLE R-SQUARED SPACING: 0.0625
Info: NONBONDED TABLE SIZE: 705 POINTS
TCL: Setting parameter alchLambda2 to 0.7999999999999998
Info: NONBONDED TABLE R-SQUARED SPACING: 0.0625
Info: NONBONDED TABLE SIZE: 705 POINTS
TCL: Running for 1500000 steps
ETITLE: TS BOND ANGLE DIHED IMPRP ELECT VDW BOUNDARY MISC KINETIC TOTAL TEMP POTENTIAL TOTALAVG TEMPAVG PRESSURE GPRESSURE VOLUME PRESSAVG GPRESSAVG
ENERGY: 0 1.7995 4.7161 0.9660 0.0000 -10420.2948 1347.9410 0.0000 0.0000 1724.4480 -7340.4242 297.8485 -9064.8722 -7340.4242 297.8485 -448.5870 -363.7916 29738.6448 -448.5870 -363.7916
ENERGY: 300000 2.4144 4.6938 1.2979 0.0000 -10422.4271 1402.2423 0.0000 0.0000 1769.3337 -7242.4450 305.6012 -9011.7787 -7299.4319 300.9718 -28.3582 -49.0683 30262.4421 10.6995 41.5580
ENERGY: 600000 2.7175 7.5991 1.5084 0.0000 -10576.1766 1429.3012 0.0000 0.0000 1778.4037 -7356.6467 307.1678 -9135.0504 -7305.8547 301.2666 -6.0270 73.8927 30229.2301 211.5803 264.1264
ENERGY: 900000 4.3090 6.5296 1.9048 0.0000 -10521.6330 1462.8649 0.0000 0.0000 1700.9668 -7345.0579 293.7928 -9046.0248 -7322.9523 299.7059 698.2133 803.4441 29537.1817 185.5149 237.0129
ENERGY: 1200000 2.7027 4.3723 0.6982 0.0000 -10632.8576 1520.6334 0.0000 0.0000 1749.3871 -7355.0639 302.1560 -9104.4510 -7332.2046 300.4991 743.2982 772.7221 30025.6652 250.5251 304.1051
ENERGY: 1500000 2.8373 7.6304 0.6895 0.0000 -10501.3690 1380.5496 0.0000 0.0000 1813.0620 -7296.6002 313.1540 -9109.6622 -7329.4003 301.4510 -81.1263 -110.9828 29861.8093 236.6135 283.5984
TCL: Running FEP window   5: Lambda1 0.7999999999999998 Lambda2 0.7499999999999998 [dLambda -0.050000000000000044]
TCL: Setting parameter firsttimestep to 0
TCL: Setting parameter alchLambda to 0.7999999999999998
Info: NONBONDED TABLE R-SQUARED SPACING: 0.0625
Info: NONBONDED TABLE SIZE: 705 POINTS
TCL: Setting parameter alchLambda2 to 0.7499999999999998
Info: NONBONDED TABLE R-SQUARED SPACING: 0.0625
Info: NONBONDED TABLE SIZE: 705 POINTS
TCL: Running for 1500000 steps
ETITLE: TS BOND ANGLE DIHED IMPRP ELECT VDW BOUNDARY MISC KINETIC TOTAL TEMP POTENTIAL TOTALAVG TEMPAVG PRESSURE GPRESSURE VOLUME PRESSAVG GPRESSAVG
ENERGY: 0 2.8373 7.6304 0.6895 0.0000 -10498.9927 1378.7690 0.0000 0.0000 1812.1982 -7296.8683 313.0048 -9109.0665 -7296.8683 313.0048 -213.3998 -126.8632 29861.8093 -213.3998 -126.8632
ENERGY: 300000 1.8392 6.5506 0.8069 0.0000 -10441.7866 1394.7556 0.0000 0.0000 1783.3093 -7254.5249 308.0151 -9037.8342 -7271.1176 309.4336 -34.6616 26.7460 30135.5748 29.0299 91.4267
ENERGY: 600000 1.5360 5.4708 1.0536 0.0000 -10537.0055 1383.3757 0.0000 0.0000 1791.7192 -7353.8502 309.4677 -9145.5694 -7308.9011 308.4533 -335.9744 -233.8852 29803.3129 44.2126 97.5507
ENERGY: 900000 3.4221 4.6865 0.6775 0.0000 -10450.9691 1374.2437 0.0000 0.0000 1764.8473 -7303.0920 304.8264 -9067.9394 -7312.2437 307.0521 -109.4507 -71.3935 29878.5084 -29.3339 30.4645
ENERGY: 1200000 2.7745 4.9559 1.5034 0.0000 -10440.5639 1350.7143 0.0000 0.0000 1732.2754 -7348.3405 299.2005 -9080.6159 -7322.4019 305.1316 -463.6793 -392.3705 29897.4187 -80.5009 -20.7591
ENERGY: 1500000 1.1244 5.5803 1.8862 0.0000 -10567.5072 1478.1193 0.0000 0.0000 1736.0310 -7344.7660 299.8492 -9080.7970 -7333.4278 303.7551 631.9899 640.3558 30025.8345 3.6236 66.5517
TCL: Running FEP window   6: Lambda1 0.7499999999999998 Lambda2 0.6999999999999997 [dLambda -0.050000000000000044]
TCL: Setting parameter firsttimestep to 0
TCL: Setting parameter alchLambda to 0.7499999999999998
Info: NONBONDED TABLE R-SQUARED SPACING: 0.0625
Info: NONBONDED TABLE SIZE: 705 POINTS
TCL: Setting parameter alchLambda2 to 0.6999999999999997
Info: NONBONDED TABLE R-SQUARED SPACING: 0.0625
Info: NONBONDED TABLE SIZE: 705 POINTS
TCL: Running for 1500000 steps
ETITLE: TS BOND ANGLE DIHED IMPRP ELECT VDW BOUNDARY MISC KINETIC TOTAL TEMP POTENTIAL TOTALAVG TEMPAVG PRESSURE GPRESSURE VOLUME PRESSAVG GPRESSAVG
ENERGY: 0 1.1244 5.5803 1.8862 0.0000 -10566.4695 1477.5774 0.0000 0.0000 1735.1214 -7345.1799 299.6921 -9080.3013 -7345.1799 299.6921 537.0387 626.3742 30025.8345 537.0387 626.3742
ENERGY: 300000 1.2976 5.3034 0.7358 0.0000 -10457.1686 1406.9161 0.0000 0.0000 1743.3097 -7299.6061 301.1063 -9042.9158 -7385.1790 298.6923 138.0802 198.0082 29953.1595 -342.9392 -262.9034
ENERGY: 600000 2.2008 2.8724 1.3321 0.0000 -10499.7179 1408.5074 0.0000 0.0000 1723.3294 -7361.4758 297.6553 -9084.8053 -7375.2004 299.5000 -8.2808 41.8916 29879.1704 -129.8740 -72.9704
ENERGY: 900000 3.0591 3.3785 0.6534 0.0000 -10628.6006 1457.8535 0.0000 0.0000 1771.6292 -7392.0270 305.9977 -9163.6562 -7360.2566 301.2522 240.9621 225.0938 29787.7045 -148.2596 -97.4862
ENERGY: 1200000 1.9071 3.7769 1.8416 0.0000 -10578.5099 1472.6873 0.0000 0.0000 1742.9705 -7355.3265 301.0478 -9098.2970 -7352.4483 301.9030 399.0660 477.6839 30021.2614 -75.6489 -24.1871
ENERGY: 1500000 1.4456 5.3270 1.0063 0.0000 -10446.1174 1328.6641 0.0000 0.0000 1756.2503 -7353.4240 303.3415 -9109.6743 -7352.9115 301.8985 -833.3267 -752.4187 30097.6043 -170.4109 -117.1009
TCL: Running FEP window   7: Lambda1 0.6999999999999997 Lambda2 0.6499999999999997 [dLambda -0.050000000000000044]
TCL: Setting parameter firsttimestep to 0
TCL: Setting parameter alchLambda to 0.6999999999999997
Info: NONBONDED TABLE R-SQUARED SPACING: 0.0625
Info: NONBONDED TABLE SIZE: 705 POINTS
TCL: Setting parameter alchLambda2 to 0.6499999999999997
Info: NONBONDED TABLE R-SQUARED SPACING: 0.0625
Info: NONBONDED TABLE SIZE: 705 POINTS
TCL: Running for 1500000 steps
ETITLE: TS BOND ANGLE DIHED IMPRP ELECT VDW BOUNDARY MISC KINETIC TOTAL TEMP POTENTIAL TOTALAVG TEMPAVG PRESSURE GPRESSURE VOLUME PRESSAVG GPRESSAVG
ENERGY: 0 1.4456 5.3270 1.0063 0.0000 -10445.2315 1328.6113 0.0000 0.0000 1755.3983 -7353.4429 303.1943 -9108.8412 -7353.4429 303.1943 -827.7193 -755.0651 30097.6043 -827.7193 -755.0651
ENERGY: 300000 3.7046 4.7281 1.3095 0.0000 -10422.2141 1357.7760 0.0000 0.0000 1727.6969 -7326.9990 298.4097 -9054.6959 -7336.7378 299.8795 -668.9685 -536.7854 30174.2461 -365.4899 -266.0062
ENERGY: 600000 2.7691 4.7576 1.3587 0.0000 -10616.7540 1502.0234 0.0000 0.0000 1747.1101 -7358.7351 301.7628 -9105.8452 -7337.2837 300.3576 443.9735 494.2924 29974.1487 -312.5546 -240.4550
ENERGY: 900000 3.1117 6.0882 2.5600 0.0000 -10503.6857 1415.1871 0.0000 0.0000 1773.2960 -7303.4428 306.2856 -9076.7387 -7341.1756 300.6047 33.0561 54.7218 29755.9679 -287.8511 -221.7403
ENERGY: 1200000 3.5381 3.1808 1.2170 0.0000 -10467.2813 1409.0845 0.0000 0.0000 1846.4912 -7203.7697 318.9280 -9050.2609 -7332.1464 301.9168 -24.0317 81.8575 30105.5299 -244.6222 -180.6258
ENERGY: 1500000 1.5090 7.6912 0.8102 0.0000 -10598.4984 1424.4063 0.0000 0.0000 1741.0165 -7423.0652 300.7103 -9164.0817 -7348.6990 301.3874 11.3721 69.4122 29616.6891 -226.2670 -158.3334
TCL: Running FEP window   8: Lambda1 0.6499999999999997 Lambda2 0.5999999999999996 [dLambda -0.050000000000000044]
TCL: Setting parameter firsttimestep to 0
TCL: Setting parameter alchLambda to 0.6499999999999997
Info: NONBONDED TABLE R-SQUARED SPACING: 0.0625
Info: NONBONDED TABLE SIZE: 705 POINTS
TCL: Setting parameter alchLambda2 to 0.5999999999999996
Info: NONBONDED TABLE R-SQUARED SPACING: 0.0625
Info: NONBONDED TABLE SIZE: 705 POINTS
TCL: Running for 1500000 steps
ETITLE: TS BOND ANGLE DIHED IMPRP ELECT VDW BOUNDARY MISC KINETIC TOTAL TEMP POTENTIAL TOTALAVG TEMPAVG PRESSURE GPRESSURE VOLUME PRESSAVG GPRESSAVG
ENERGY: 0 1.5090 7.6912 0.8102 0.0000 -10598.4098 1424.3086 0.0000 0.0000 1740.1850 -7423.9057 300.5667 -9164.0908 -7423.9057 300.5667 -44.2822 59.6697 29616.6891 -44.2822 59.6697
ENERGY: 300000 3.8498 7.2453 2.6116 0.0000 -10514.8486 1412.3837 0.0000 0.0000 1763.7087 -7325.0495 304.6297 -9088.7582 -7339.6897 303.1989 77.2515 165.8421 29790.9692 198.7847 288.5675
ENERGY: 600000 1.6986 4.9803 0.9120 0.0000 -10435.6074 1422.0326 0.0000 0.0000 1733.1650 -7272.8190 299.3541 -9005.9840 -7318.4387 302.1341 72.8273 200.9427 30164.3974 170.4324 252.7784
ENERGY: 900000 1.2653 9.0131 1.4661 0.0000 -10583.2201 1435.4565 0.0000 0.0000 1726.1179 -7409.9012 298.1370 -9136.0192 -7350.7832 301.1137 37.4072 141.0475 30026.6571 201.2725 287.1367
ENERGY: 1200000 0.9101 4.0070 1.0677 0.0000 -10402.2579 1363.7426 0.0000 0.0000 1715.1155 -7317.4150 296.2366 -9032.5305 -7352.3643 301.6957 -0.8253 95.4643 29861.2222 151.4878 234.4573
ENERGY: 1500000 2.0166 5.5435 1.2288 0.0000 -10427.7710 1367.3102 0.0000 0.0000 1732.2724 -7319.3995 299.2000 -9051.6719 -7342.4171 301.9906 -456.5487 -405.2202 30347.3299 112.9248 181.3643
TCL: Running FEP window   9: Lambda1 0.5999999999999996 Lambda2 0.5499999999999996 [dLambda -0.050000000000000044]
TCL: Setting parameter firsttimestep to 0
TCL: Setting parameter alchLambda to 0.5999999999999996
Info: NONBONDED TABLE R-SQUARED SPACING: 0.0625
Info: NONBONDED TABLE SIZE: 705 POINTS
TCL: Setting parameter alchLambda2 to 0.5499999999999996
Info: NONBONDED TABLE R-SQUARED SPACING: 0.0625
Info: NONBONDED TABLE SIZE: 705 POINTS
TCL: Running for 1500000 steps
ETITLE: TS BOND ANGLE DIHED IMPRP ELECT VDW BOUNDARY MISC KINETIC TOTAL TEMP POTENTIAL TOTALAVG TEMPAVG PRESSURE GPRESSURE VOLUME PRESSAVG GPRESSAVG
ENERGY: 0 2.0166 5.5435 1.2288 0.0000 -10426.0920 1366.7454 0.0000 0.0000 1731.4108 -7319.1469 299.0512 -9050.5577 -7319.1469 299.0512 -486.4479 -413.2977 30347.3299 -486.4479 -413.2977
ENERGY: 300000 2.3904 4.4210 0.8318 0.0000 -10563.2738 1396.7659 0.0000 0.0000 1764.8206 -7394.0441 304.8217 -9158.8647 -7340.8524 301.9287 -537.3859 -473.3631 30011.4238 -157.4625 -105.0806
ENERGY: 600000 2.2431 3.1381 0.9646 0.0000 -10585.4858 1459.4372 0.0000 0.0000 1740.1159 -7379.5870 300.5547 -9119.7029 -7335.7452 301.3433 245.9572 297.6615 29974.9559 25.6836 77.0813
ENERGY: 900000 0.5699 5.1658 1.9443 0.0000 -10511.5313 1360.0933 0.0000 0.0000 1785.9164 -7357.8415 308.4654 -9143.7579 -7338.2098 302.5316 -515.3682 -477.7602 29942.3113 8.9783 53.0235
ENERGY: 1200000 3.2152 6.3137 0.9528 0.0000 -10483.0412 1380.9862 0.0000 0.0000 1684.8140 -7406.7593 291.0029 -9091.5732 -7346.7388 300.8211 -485.9474 -388.5365 30181.8326 -47.0993 8.2646
ENERGY: 1500000 2.2857 5.8494 1.5242 0.0000 -10499.2714 1364.7930 0.0000 0.0000 1712.6533 -7412.1658 295.8113 -9124.8190 -7345.7533 301.4137 -345.3122 -364.8202 29634.5929 -28.5409 24.4676
TCL: Running FEP window  10: Lambda1 0.5499999999999996 Lambda2 0.4999999999999996 [dLambda -0.04999999999999999]
TCL: Setting parameter firsttimestep to 0
TCL: Setting parameter alchLambda to 0.5499999999999996
Info: NONBONDED TABLE R-SQUARED SPACING: 0.0625
Info: NONBONDED TABLE SIZE: 705 POINTS
TCL: Setting parameter alchLambda2 to 0.4999999999999996
Info: NONBONDED TABLE R-SQUARED SPACING: 0.0625
Info: NONBONDED TABLE SIZE: 705 POINTS
TCL: Running for 1500000 steps
ETITLE: TS BOND ANGLE DIHED IMPRP ELECT VDW BOUNDARY MISC KINETIC TOTAL TEMP POTENTIAL TOTALAVG TEMPAVG PRESSURE GPRESSURE VOLUME PRESSAVG GPRESSAVG
ENERGY: 0 2.2857 5.8494 1.5242 0.0000 -10497.9677 1365.1397 0.0000 0.0000 1711.7970 -7411.3716 295.6634 -9123.1686 -7411.3716 295.6634 -425.3727 -364.0362 29634.5929 -425.3727 -364.0362
ENERGY: 300000 2.8907 5.2215 0.7868 0.0000 -10573.7393 1465.8147 0.0000 0.0000 1739.5249 -7359.5007 300.4526 -9099.0256 -7354.1674 298.2915 239.6560 350.9573 29973.0406 -280.6780 -216.0873
ENERGY: 600000 1.8161 4.0649 0.8310 0.0000 -10522.5323 1368.7664 0.0000 0.0000 1726.0246 -7421.0293 298.1209 -9147.0539 -7368.9056 298.1622 -618.9541 -600.0842 30020.2490 -252.6354 -202.6076
ENERGY: 900000 4.3548 5.5833 1.2022 0.0000 -10629.3640 1524.1938 0.0000 0.0000 1743.3756 -7350.6543 301.1177 -9094.0299 -7376.5479 298.3131 820.3944 817.0740 30118.3625 -157.2045 -111.0456
ENERGY: 1200000 1.3575 4.2296 0.7564 0.0000 -10672.7039 1503.3214 0.0000 0.0000 1805.9644 -7357.0746 311.9281 -9163.0391 -7375.0997 299.5365 578.5586 616.6212 29624.1790 -17.9560 29.6289
ENERGY: 1500000 0.6531 3.8997 1.9813 0.0000 -10664.5506 1505.9537 0.0000 0.0000 1757.7397 -7394.3230 303.5987 -9152.0628 -7373.3617 299.3869 545.5310 563.3364 29660.4816 55.8692 95.3887
TCL: Running FEP window  11: Lambda1 0.4999999999999996 Lambda2 0.4499999999999996 [dLambda -0.04999999999999999]
TCL: Setting parameter firsttimestep to 0
TCL: Setting parameter alchLambda to 0.4999999999999996
Info: NONBONDED TABLE R-SQUARED SPACING: 0.0625
Info: NONBONDED TABLE SIZE: 705 POINTS
TCL: Setting parameter alchLambda2 to 0.4499999999999996
Info: NONBONDED TABLE R-SQUARED SPACING: 0.0625
Info: NONBONDED TABLE SIZE: 705 POINTS
TCL: Running for 1500000 steps
ETITLE: TS BOND ANGLE DIHED IMPRP ELECT VDW BOUNDARY MISC KINETIC TOTAL TEMP POTENTIAL TOTALAVG TEMPAVG PRESSURE GPRESSURE VOLUME PRESSAVG GPRESSAVG
ENERGY: 0 0.6531 3.8997 1.9813 0.0000 -10664.7188 1506.1436 0.0000 0.0000 1756.9355 -7395.1056 303.4598 -9152.0411 -7395.1056 303.4598 487.5895 562.0221 29660.4816 487.5895 562.0221
ENERGY: 300000 0.6716 9.2279 1.7183 0.0000 -10562.1495 1442.4358 0.0000 0.0000 1789.5935 -7318.5023 309.1005 -9108.0958 -7336.5610 307.0837 272.0945 363.3793 29800.2469 1.5225 64.7832
ENERGY: 600000 0.7496 5.3421 0.6374 0.0000 -10500.0804 1432.9384 0.0000 0.0000 1743.1922 -7317.2206 301.0861 -9060.4128 -7338.4486 303.0991 223.2956 331.6989 30004.2547 -6.6392 72.0015
ENERGY: 900000 1.9489 6.6622 1.0890 0.0000 -10486.3013 1408.1169 0.0000 0.0000 1747.0025 -7321.4818 301.7442 -9068.4843 -7344.2689 302.4430 -112.2333 -41.9357 30243.1191 -73.7320 1.3017
ENERGY: 1200000 1.2068 4.4343 1.9693 0.0000 -10410.3810 1263.0639 0.0000 0.0000 1761.6185 -7378.0881 304.2687 -9139.7066 -7348.2616 302.6277 -1404.9216 -1326.4731 30041.4208 -209.5553 -131.7009
ENERGY: 1500000 1.5258 6.1543 1.6349 0.0000 -10286.4020 1241.8436 0.0000 0.0000 1725.2022 -7310.0412 297.9788 -9035.2433 -7343.6967 302.8024 -1212.9579 -1183.3764 30073.8535 -221.1628 -144.1516
TCL: Running FEP window  12: Lambda1 0.4499999999999996 Lambda2 0.39999999999999963 [dLambda -0.04999999999999999]
TCL: Setting parameter firsttimestep to 0
TCL: Setting parameter alchLambda to 0.4499999999999996
Info: NONBONDED TABLE R-SQUARED SPACING: 0.0625
Info: NONBONDED TABLE SIZE: 705 POINTS
TCL: Setting parameter alchLambda2 to 0.39999999999999963
Info: NONBONDED TABLE R-SQUARED SPACING: 0.0625
Info: NONBONDED TABLE SIZE: 705 POINTS
TCL: Running for 1500000 steps
ETITLE: TS BOND ANGLE DIHED IMPRP ELECT VDW BOUNDARY MISC KINETIC TOTAL TEMP POTENTIAL TOTALAVG TEMPAVG PRESSURE GPRESSURE VOLUME PRESSAVG GPRESSAVG
ENERGY: 0 1.5258 6.1543 1.6349 0.0000 -10286.4019 1241.3172 0.0000 0.0000 1724.3093 -7311.4604 297.8246 -9035.7697 -7311.4604 297.8246 -1265.0859 -1193.1123 30073.8535 -1265.0859 -1193.1123
ENERGY: 300000 3.7018 4.0358 0.8062 0.0000 -10440.5338 1394.8329 0.0000 0.0000 1703.7370 -7333.4201 294.2713 -9037.1571 -7331.3622 297.0570 -119.4847 -50.1571 29900.0360 -429.8728 -356.3576
ENERGY: 600000 0.9344 3.6945 1.0713 0.0000 -10490.5895 1378.6178 0.0000 0.0000 1714.7549 -7391.5166 296.1743 -9106.2715 -7328.6418 299.6179 -108.3740 -70.6541 29350.9281 -585.7333 -530.8879
ENERGY: 900000 4.5885 7.7596 1.2589 0.0000 -10506.0781 1439.5454 0.0000 0.0000 1714.7519 -7338.1738 296.1738 -9052.9257 -7329.3922 300.4464 269.7445 317.6172 29663.4831 -315.1032 -255.9649
ENERGY: 1200000 0.9821 2.8973 0.7118 0.0000 -10473.5521 1437.2487 0.0000 0.0000 1713.7291 -7317.9831 295.9972 -9031.7122 -7322.9067 300.2555 214.7185 304.6094 30311.9454 -255.8806 -193.2953
ENERGY: 1500000 1.6232 7.8929 1.3601 0.0000 -10520.0293 1385.7752 0.0000 0.0000 1749.0496 -7374.3282 302.0978 -9123.3778 -7323.2241 300.2780 -225.1658 -146.8656 29645.3326 -253.0067 -185.9233
TCL: Running FEP window  13: Lambda1 0.39999999999999963 Lambda2 0.34999999999999964 [dLambda -0.04999999999999999]
TCL: Setting parameter firsttimestep to 0
TCL: Setting parameter alchLambda to 0.39999999999999963
Info: NONBONDED TABLE R-SQUARED SPACING: 0.0625
Info: NONBONDED TABLE SIZE: 705 POINTS
TCL: Setting parameter alchLambda2 to 0.34999999999999964
Info: NONBONDED TABLE R-SQUARED SPACING: 0.0625
Info: NONBONDED TABLE SIZE: 705 POINTS
TCL: Running for 1500000 steps
ETITLE: TS BOND ANGLE DIHED IMPRP ELECT VDW BOUNDARY MISC KINETIC TOTAL TEMP POTENTIAL TOTALAVG TEMPAVG PRESSURE GPRESSURE VOLUME PRESSAVG GPRESSAVG
ENERGY: 0 1.6232 7.8929 1.3601 0.0000 -10520.0296 1386.1279 0.0000 0.0000 1748.1750 -7374.8505 301.9467 -9123.0256 -7374.8505 301.9467 -222.5353 -146.2354 29645.3326 -222.5353 -146.2354
ENERGY: 300000 0.9869 9.5431 0.9516 0.0000 -10611.5110 1510.1310 0.0000 0.0000 1756.3299 -7333.5684 303.3552 -9089.8983 -7351.6107 298.7295 978.6064 1044.9356 29506.3700 270.4991 326.3071
ENERGY: 600000 4.0912 3.5966 1.0860 0.0000 -10538.1351 1413.8378 0.0000 0.0000 1769.1577 -7346.3658 305.5708 -9115.5235 -7348.5728 299.7316 -373.8797 -339.1750 30276.1844 7.3545 53.7599
ENERGY: 900000 3.6580 6.3552 1.5493 0.0000 -10507.4135 1408.7745 0.0000 0.0000 1777.9425 -7309.1341 307.0882 -9087.0765 -7352.5236 299.1363 87.6592 106.8364 29613.5490 118.0346 165.5920
ENERGY: 1200000 2.9100 4.2399 1.0749 0.0000 -10602.3965 1461.9897 0.0000 0.0000 1747.6976 -7384.4844 301.8642 -9132.1820 -7363.7118 298.4145 332.3963 414.1573 29482.7668 117.2781 169.4060
ENERGY: 1500000 2.9681 4.3631 1.0633 0.0000 -10541.0280 1424.3478 0.0000 0.0000 1813.7238 -7294.5618 313.2683 -9108.2856 -7353.1793 299.2218 -161.3141 -135.7067 30220.9383 136.0044 192.1365
TCL: Running FEP window  14: Lambda1 0.34999999999999964 Lambda2 0.29999999999999966 [dLambda -0.04999999999999999]
TCL: Setting parameter firsttimestep to 0
TCL: Setting parameter alchLambda to 0.34999999999999964
Info: NONBONDED TABLE R-SQUARED SPACING: 0.0625
Info: NONBONDED TABLE SIZE: 705 POINTS
TCL: Setting parameter alchLambda2 to 0.29999999999999966
Info: NONBONDED TABLE R-SQUARED SPACING: 0.0625
Info: NONBONDED TABLE SIZE: 705 POINTS
TCL: Running for 1500000 steps
ETITLE: TS BOND ANGLE DIHED IMPRP ELECT VDW BOUNDARY MISC KINETIC TOTAL TEMP POTENTIAL TOTALAVG TEMPAVG PRESSURE GPRESSURE VOLUME PRESSAVG GPRESSAVG
ENERGY: 0 2.9681 4.3631 1.0633 0.0000 -10541.0267 1424.7353 0.0000 0.0000 1812.8407 -7295.0562 313.1158 -9107.8969 -7295.0562 313.1158 -209.6677 -134.2972 30220.9383 -209.6677 -134.2972
ENERGY: 300000 2.6724 6.2198 1.8643 0.0000 -10535.6883 1386.3689 0.0000 0.0000 1753.3564 -7385.2065 302.8416 -9138.5629 -7413.2844 302.2922 -429.6217 -353.8166 30051.2698 -241.3537 -175.7986
ENERGY: 600000 0.4975 6.7401 1.5254 0.0000 -10607.2472 1453.4179 0.0000 0.0000 1729.2492 -7415.8171 298.6778 -9145.0663 -7406.9312 301.6994 -69.4894 27.2208 30104.0792 -38.0905 36.7921
ENERGY: 900000 1.2431 7.1221 0.9673 0.0000 -10528.2849 1447.4220 0.0000 0.0000 1747.8585 -7323.6718 301.8920 -9071.5303 -7391.6908 300.8082 185.5628 249.9397 29962.6017 -137.8100 -75.6068
ENERGY: 1200000 2.8495 8.3177 1.4143 0.0000 -10512.5846 1367.5559 0.0000 0.0000 1742.8012 -7389.6460 301.0185 -9132.4472 -7393.2788 300.1642 -591.3337 -517.2484 29854.9076 -156.5249 -104.4102
ENERGY: 1500000 4.2480 4.2483 1.8501 0.0000 -10448.6962 1379.2993 0.0000 0.0000 1693.6194 -7365.4312 292.5238 -9059.0506 -7383.5987 299.2308 -571.9291 -532.7092 30261.9074 -127.3725 -76.4240
TCL: Running FEP window  15: Lambda1 0.29999999999999966 Lambda2 0.24999999999999967 [dLambda -0.04999999999999999]
TCL: Setting parameter firsttimestep to 0
TCL: Setting parameter alchLambda to 0.29999999999999966
Info: NONBONDED TABLE R-SQUARED SPACING: 0.0625
Info: NONBONDED TABLE SIZE: 705 POINTS
TCL: Setting parameter alchLambda2 to 0.24999999999999967
Info: NONBONDED TABLE R-SQUARED SPACING: 0.0625
Info: NONBONDED TABLE SIZE: 705 POINTS
TCL: Running for 1500000 steps
ETITLE: TS BOND ANGLE DIHED IMPRP ELECT VDW BOUNDARY MISC KINETIC TOTAL TEMP POTENTIAL TOTALAVG TEMPAVG PRESSURE GPRESSURE VOLUME PRESSAVG GPRESSAVG
ENERGY: 0 4.2480 4.2483 1.8501 0.0000 -10448.6961 1379.5576 0.0000 0.0000 1692.7769 -7366.0153 292.3783 -9058.7921 -7366.0153 292.3783 -602.6044 -537.7669 30261.9074 -602.6044 -537.7669
ENERGY: 300000 3.9628 4.1789 0.7857 0.0000 -10486.3867 1378.0860 0.0000 0.0000 1691.7310 -7407.6424 292.1976 -9099.3734 -7381.1341 298.7965 -297.8257 -259.4699 29659.8195 -437.8724 -392.2549
ENERGY: 600000 4.3668 5.0721 1.1933 0.0000 -10464.7860 1374.0692 0.0000 0.0000 1698.4487 -7381.6359 293.3579 -9080.0846 -7373.3638 296.8823 -247.7712 -169.7618 29757.2957 -351.0299 -304.4794
ENERGY: 900000 4.2453 3.8259 1.4108 0.0000 -10694.5111 1523.3722 0.0000 0.0000 1762.9246 -7398.7324 304.4943 -9161.6570 -7361.0332 299.6606 636.8499 690.5883 29538.5665 -174.7143 -127.4831
ENERGY: 1200000 2.5023 4.8624 1.0875 0.0000 -10657.7803 1488.6003 0.0000 0.0000 1742.8641 -7417.8639 301.0294 -9160.7279 -7360.2304 299.6195 293.6991 320.2303 30009.7862 -135.6222 -85.8396
ENERGY: 1500000 1.0172 8.6022 1.0248 0.0000 -10646.1210 1489.1300 0.0000 0.0000 1763.5484 -7382.7984 304.6020 -9146.3468 -7358.7177 299.4067 624.1109 692.5403 29752.3169 -113.5444 -59.7059
TCL: Running FEP window  16: Lambda1 0.24999999999999967 Lambda2 0.19999999999999968 [dLambda -0.04999999999999999]
TCL: Setting parameter firsttimestep to 0
TCL: Setting parameter alchLambda to 0.24999999999999967
Info: NONBONDED TABLE R-SQUARED SPACING: 0.0625
Info: NONBONDED TABLE SIZE: 705 POINTS
TCL: Setting parameter alchLambda2 to 0.19999999999999968
Info: NONBONDED TABLE R-SQUARED SPACING: 0.0625
Info: NONBONDED TABLE SIZE: 705 POINTS
TCL: Running for 1500000 steps
ETITLE: TS BOND ANGLE DIHED IMPRP ELECT VDW BOUNDARY MISC KINETIC TOTAL TEMP POTENTIAL TOTALAVG TEMPAVG PRESSURE GPRESSURE VOLUME PRESSAVG GPRESSAVG
ENERGY: 0 1.0172 8.6022 1.0248 0.0000 -10646.1222 1489.5788 0.0000 0.0000 1762.6855 -7383.2138 304.4530 -9145.8993 -7383.2138 304.4530 601.6600 692.1130 29752.3169 601.6600 692.1130
ENERGY: 300000 2.4027 5.0339 1.1399 0.0000 -10503.9397 1421.2754 0.0000 0.0000 1749.8969 -7324.1909 302.2441 -9074.0878 -7330.9713 301.2044 71.8611 98.1935 29832.5711 -14.6117 41.1454
ENERGY: 600000 1.4397 2.5884 1.9329 0.0000 -10461.4853 1448.9261 0.0000 0.0000 1719.7869 -7286.8114 297.0435 -9006.5982 -7329.6437 300.2192 115.7781 217.5006 30257.0052 -135.4154 -89.4281
ENERGY: 900000 3.9051 3.3983 1.3341 0.0000 -10465.1401 1357.4793 0.0000 0.0000 1784.1592 -7314.8641 308.1619 -9099.0233 -7332.2557 300.9435 -571.7487 -506.3039 30005.9313 -169.0237 -120.0250
ENERGY: 1200000 3.6992 6.3677 1.3807 0.0000 -10656.3809 1459.2000 0.0000 0.0000 1720.2798 -7465.4535 297.1286 -9185.7333 -7352.3000 299.6889 114.2780 191.1433 29436.4834 -193.1318 -136.7372
ENERGY: 1500000 6.4692 4.9901 1.3778 0.0000 -10551.1218 1476.1930 0.0000 0.0000 1733.4259 -7328.6657 299.3992 -9062.0916 -7353.4325 299.3215 210.5744 255.8798 30499.0612 -190.1188 -139.8669
TCL: Running FEP window  17: Lambda1 0.19999999999999968 Lambda2 0.1499999999999997 [dLambda -0.04999999999999999]
TCL: Setting parameter firsttimestep to 0
TCL: Setting parameter alchLambda to 0.19999999999999968
Info: NONBONDED TABLE R-SQUARED SPACING: 0.0625
Info: NONBONDED TABLE SIZE: 705 POINTS
TCL: Setting parameter alchLambda2 to 0.1499999999999997
Info: NONBONDED TABLE R-SQUARED SPACING: 0.0625
Info: NONBONDED TABLE SIZE: 705 POINTS
TCL: Running for 1500000 steps
ETITLE: TS BOND ANGLE DIHED IMPRP ELECT VDW BOUNDARY MISC KINETIC TOTAL TEMP POTENTIAL TOTALAVG TEMPAVG PRESSURE GPRESSURE VOLUME PRESSAVG GPRESSAVG
ENERGY: 0 6.4692 4.9901 1.3778 0.0000 -10551.1206 1476.1212 0.0000 0.0000 1732.5729 -7329.5894 299.2519 -9062.1622 -7329.5894 299.2519 163.2438 247.8499 30499.0612 163.2438 247.8499
ENERGY: 300000 4.7979 5.6170 0.9204 0.0000 -10551.2866 1431.6038 0.0000 0.0000 1699.4354 -7408.9121 293.5283 -9108.3475 -7352.0130 298.5389 -70.6089 -57.5592 29878.6046 -176.9315 -122.3900
ENERGY: 600000 2.8421 7.7060 1.3359 0.0000 -10493.8359 1430.1930 0.0000 0.0000 1782.3508 -7269.4082 307.8496 -9051.7590 -7324.2911 301.2506 -55.1192 -53.5163 30579.2150 -66.2334 -28.9974
ENERGY: 900000 1.1313 8.7383 0.9457 0.0000 -10487.0870 1439.0433 0.0000 0.0000 1715.4437 -7321.7847 296.2933 -9037.2284 -7335.7454 301.4063 137.5722 219.9509 29938.8199 -71.0737 -21.8946
ENERGY: 1200000 0.8372 5.1054 1.2345 0.0000 -10509.8128 1429.6177 0.0000 0.0000 1713.2302 -7359.7878 295.9110 -9073.0180 -7343.1652 300.4424 -103.4004 -59.9196 30073.2446 -58.9503 -8.4339
ENERGY: 1500000 2.6919 6.4518 1.0948 0.0000 -10532.8269 1462.0276 0.0000 0.0000 1716.0621 -7344.4987 296.4001 -9060.5608 -7347.7156 299.7715 400.0005 496.6609 29748.3018 -79.1734 -28.7721
TCL: Running FEP window  18: Lambda1 0.1499999999999997 Lambda2 0.09999999999999969 [dLambda -0.05 ]
TCL: Setting parameter firsttimestep to 0
TCL: Setting parameter alchLambda to 0.1499999999999997
Info: NONBONDED TABLE R-SQUARED SPACING: 0.0625
Info: NONBONDED TABLE SIZE: 705 POINTS
TCL: Setting parameter alchLambda2 to 0.09999999999999969
Info: NONBONDED TABLE R-SQUARED SPACING: 0.0625
Info: NONBONDED TABLE SIZE: 705 POINTS
TCL: Running for 1500000 steps
ETITLE: TS BOND ANGLE DIHED IMPRP ELECT VDW BOUNDARY MISC KINETIC TOTAL TEMP POTENTIAL TOTALAVG TEMPAVG PRESSURE GPRESSURE VOLUME PRESSAVG GPRESSAVG
ENERGY: 0 2.6919 6.4518 1.0948 0.0000 -10532.8253 1461.4436 0.0000 0.0000 1715.2262 -7345.9170 296.2557 -9061.1432 -7345.9170 296.2557 404.3991 492.0300 29748.3018 404.3991 492.0300
ENERGY: 300000 1.5611 5.9394 0.9902 0.0000 -10511.4818 1399.8050 0.0000 0.0000 1742.6229 -7360.5632 300.9877 -9103.1861 -7354.3432 297.4481 -172.8922 -167.7986 29803.2436 -110.0649 -52.4338
ENERGY: 600000 1.0609 4.6873 1.2919 0.0000 -10453.9518 1360.1292 0.0000 0.0000 1727.4925 -7359.2901 298.3744 -9086.7826 -7353.6608 297.9304 -312.4273 -305.4831 29775.6924 -181.9846 -134.2397
ENERGY: 900000 2.3795 3.2196 0.7816 0.0000 -10415.3754 1384.2383 0.0000 0.0000 1740.8640 -7283.8923 300.6839 -9024.7564 -7352.6309 297.8083 -199.7611 -128.3527 29989.3215 -208.1307 -145.6086
ENERGY: 1200000 2.2064 6.1089 1.1292 0.0000 -10559.5306 1398.1660 0.0000 0.0000 1748.7779 -7403.1422 302.0508 -9151.9201 -7353.3926 297.8837 -117.2258 -20.2823 29425.7996 -142.7364 -80.2855
ENERGY: 1500000 1.2259 8.1832 1.2255 0.0000 -10690.8702 1520.1294 0.0000 0.0000 1756.0746 -7404.0316 303.3111 -9160.1062 -7348.4535 299.2939 471.6341 590.5731 29745.8632 -131.9910 -69.7554
TCL: Running FEP window  19: Lambda1 0.09999999999999969 Lambda2 0.049999999999999684 [dLambda -0.05 ]
TCL: Setting parameter firsttimestep to 0
TCL: Setting parameter alchLambda to 0.09999999999999969
Info: NONBONDED TABLE R-SQUARED SPACING: 0.0625
Info: NONBONDED TABLE SIZE: 705 POINTS
TCL: Setting parameter alchLambda2 to 0.049999999999999684
Info: NONBONDED TABLE R-SQUARED SPACING: 0.0625
Info: NONBONDED TABLE SIZE: 705 POINTS
TCL: Running for 1500000 steps
ETITLE: TS BOND ANGLE DIHED IMPRP ELECT VDW BOUNDARY MISC KINETIC TOTAL TEMP POTENTIAL TOTALAVG TEMPAVG PRESSURE GPRESSURE VOLUME PRESSAVG GPRESSAVG
ENERGY: 0 1.2259 8.1832 1.2255 0.0000 -10690.8699 1520.1373 0.0000 0.0000 1755.2261 -7404.8719 303.1646 -9160.0980 -7404.8719 303.1646 523.2238 587.9700 29745.8632 523.2238 587.9700
ENERGY: 300000 1.1162 7.4276 1.4326 0.0000 -10550.4403 1450.5671 0.0000 0.0000 1803.6194 -7286.2774 311.5231 -9089.8968 -7369.0990 302.0596 75.7075 173.9893 29903.3264 64.7402 133.9509
ENERGY: 600000 0.2993 7.4924 1.5775 0.0000 -10396.5183 1320.5067 0.0000 0.0000 1719.7037 -7346.9387 297.0291 -9066.6424 -7362.0146 300.7975 -655.2149 -578.4422 29767.8095 -294.7634 -214.6500
ENERGY: 900000 2.4945 3.5578 1.2348 0.0000 -10477.3364 1434.1846 0.0000 0.0000 1689.6852 -7346.1794 291.8443 -9035.8646 -7358.5378 298.9991 -85.8542 -31.6246 30364.2904 -297.2752 -223.2617
ENERGY: 1200000 3.2010 5.2943 1.4634 0.0000 -10460.7804 1415.6815 0.0000 0.0000 1770.3363 -7264.8038 305.7744 -9035.1401 -7346.1799 299.7092 183.8519 265.0596 29663.0301 -288.0629 -207.1219
ENERGY: 1500000 2.4983 6.7413 1.2461 0.0000 -10553.6937 1464.1856 0.0000 0.0000 1677.7943 -7401.2282 289.7904 -9079.0225 -7340.3154 299.2879 468.7667 570.0594 29673.3233 -219.0554 -140.1151
TCL: Running FEP window  20: Lambda1 0.049999999999999684 Lambda2 0.0    [dLambda -0.049999999999999684]
TCL: Setting parameter firsttimestep to 0
TCL: Setting parameter alchLambda to 0.049999999999999684
Info: NONBONDED TABLE R-SQUARED SPACING: 0.0625
Info: NONBONDED TABLE SIZE: 705 POINTS
TCL: Setting parameter alchLambda2 to 0.0
Info: NONBONDED TABLE R-SQUARED SPACING: 0.0625
Info: NONBONDED TABLE SIZE: 705 POINTS
TCL: Running for 1500000 steps
ETITLE: TS BOND ANGLE DIHED IMPRP ELECT VDW BOUNDARY MISC KINETIC TOTAL TEMP POTENTIAL TOTALAVG TEMPAVG PRESSURE GPRESSURE VOLUME PRESSAVG GPRESSAVG
ENERGY: 0 2.4983 6.7413 1.2461 0.0000 -10553.6953 1464.3670 0.0000 0.0000 1676.9118 -7401.9309 289.6380 -9078.8427 -7401.9309 289.6380 487.7121 568.3369 29673.3233 487.7121 568.3369
ENERGY: 300000 1.7401 3.8550 0.8614 0.0000 -10559.2232 1391.1642 0.0000 0.0000 1714.2370 -7447.3655 296.0849 -9161.6025 -7339.3954 301.3696 -722.6789 -595.8306 29848.5042 -199.0807 -97.0158
ENERGY: 600000 4.6933 6.6042 1.4543 0.0000 -10544.0622 1404.4488 0.0000 0.0000 1761.3274 -7365.5342 304.2184 -9126.8616 -7335.0581 302.6349 -119.1886 -103.0900 29713.5650 -220.9858 -157.3984
ENERGY: 900000 2.3278 5.5127 0.6602 0.0000 -10490.0547 1367.6417 0.0000 0.0000 1747.1439 -7366.7684 301.7686 -9113.9123 -7350.4635 301.7735 -512.1616 -442.7288 29825.0738 -291.8851 -231.3262
ENERGY: 1200000 2.2265 4.6776 0.9283 0.0000 -10401.8999 1313.7305 0.0000 0.0000 1738.9129 -7341.4241 300.3469 -9080.3370 -7350.7819 302.0956 -626.1629 -540.7920 29571.3053 -209.8267 -144.1216
ENERGY: 1500000 2.6932 3.9949 1.1742 0.0000 -10604.2346 1420.2969 0.0000 0.0000 1702.1312 -7473.9441 293.9939 -9176.0753 -7361.7552 300.6882 -59.7944 55.8361 29282.2225 -214.1631 -142.8838
TCL: Exiting due to exit command.
