Info: SIMULATION PARAMETERS:
Info: TIMESTEP               2
Info: NUMBER OF STEPS        0
Info: STEPS PER CYCLE        10
Info: PERIODIC CELL BASIS 1  31.9659 0 0
Info: PERIODIC CELL BASIS 2  0 30.1853 0
Info: PERIODIC CELL BASIS 3  0 0 31.4743
Info: PERIODIC CELL CENTER   0 0 0
Info: WRAPPING WATERS AROUND PERIODIC BOUNDARIES ON OUTPUT.
Info: WRAPPING ALL CLUSTERS AROUND PERIODIC BOUNDARIES ON OUTPUT.
Info: FIRST LDB TIMESTEP     50
Info: LAST LDB TIMESTEP     -1
Info: HOM BACKGROUND SCALING 1
Info: PME BACKGROUND SCALING 1
Info: MIN ATOMS PER PATCH    40
Info: EMPTY PATCH LOAD       40 ATOMS
Info: VELOCITY FILE          mobley_1733799_equil.vel
Info: CENTER OF MASS MOVING INITIALLY? NO
Info: DIELECTRIC             1
Info: EXCLUDE                SCALED ONE-FOUR
Info: 1-4 ELECTROSTATICS SCALED BY 0.833333
Info: MODIFIED 1-4 VDW PARAMETERS WILL BE USED
Info: DCD FILENAME           mobley_1733799_prod.dcd
Info: DCD FREQUENCY          100000
Info: DCD FIRST STEP         100000
Info: DCD FILE WILL CONTAIN UNIT CELL DATA
Info: XST FILENAME           mobley_1733799_prod.xst
Info: XST FREQUENCY          100000
Info: NO VELOCITY DCD OUTPUT
Info: NO FORCE DCD OUTPUT
Info: OUTPUT FILENAME        mobley_1733799_prod
Info: BINARY OUTPUT FILES WILL BE USED
Info: RESTART FILENAME       mobley_1733799_prod.restart
Info: RESTART FREQUENCY      100000
Info: BINARY RESTART FILES WILL BE USED
Info: CUTOFF                 9
Info: PAIRLIST DISTANCE      11
Info: PAIRLIST SHRINK RATE   0.01
Info: PAIRLIST GROW RATE     0.01
Info: PAIRLIST TRIGGER       0.3
Info: PAIRLISTS PER CYCLE    2
Info: PAIRLISTS ENABLED
Info: MARGIN                 2
Info: HYDROGEN GROUP CUTOFF  2.5
Info: PATCH DIMENSION        15.5
Info: ENERGY OUTPUT STEPS    100000
Info: ENERGY EVALUATION STEPS    100000
Info: OUTPUT ENERGY PRECISION 4
Info: CROSSTERM ENERGY INCLUDED IN DIHEDRAL
Info: TIMING OUTPUT STEPS    1000000
Info: PRESSURE OUTPUT STEPS  100000
Info: ALCHEMICAL FEP ON
Info: FEP CURRENT LAMBDA VALUE     1
Info: FEP COMPARISON LAMBDA VALUE  0.95
Info: FEP INTRA-ALCHEMICAL NON-BONDED INTERACTIONS WILL BE RETAINED
Info: FEP INTRA-ALCHEMICAL BONDED INTERACTIONS WILL BE RETAINED
Info: FEP VDW SHIFTING COEFFICIENT 5
Info: FEP ELEC. ACTIVE FOR ANNIHILATED PARTICLES BETWEEN LAMBDA = 0 AND LAMBDA = 0.5
Info: FEP ELEC. ACTIVE FOR EXNIHILATED PARTICLES BETWEEN LAMBDA = 0.5 AND LAMBDA = 1
Info: FEP VDW ACTIVE FOR ANNIHILATED PARTICLES BETWEEN LAMBDA = 0 AND LAMBDA = 1
Info: FEP VDW ACTIVE FOR EXNIHILATED PARTICLES BETWEEN LAMBDA = 0 AND LAMBDA = 1
Info: FEP BOND ACTIVE FOR ANNIHILATED PARTICLES BETWEEN LAMBDA = 1 AND LAMBDA = 1
Info: FEP BOND ACTIVE FOR EXNIHILATED PARTICLES BETWEEN LAMBDA = 0 AND LAMBDA = 0
Info: LANGEVIN DYNAMICS ACTIVE
Info: LANGEVIN TEMPERATURE   300
Info: LANGEVIN USING BBK INTEGRATOR
Info: LANGEVIN DAMPING COEFFICIENT IS 1 INVERSE PS
Info: LANGEVIN DYNAMICS APPLIED TO HYDROGENS
Info: LANGEVIN PISTON PRESSURE CONTROL ACTIVE
Info:        TARGET PRESSURE IS 1.01325 BAR
Info:     OSCILLATION PERIOD IS 50 FS
Info:             DECAY TIME IS 25 FS
Info:     PISTON TEMPERATURE IS 300 K
Info:       PRESSURE CONTROL IS GROUP-BASED
Info:    INITIAL STRAIN RATE IS 0.000124757 0.000124757 0.000124757
Info:       CELL FLUCTUATION IS ISOTROPIC
Info: PARTICLE MESH EWALD (PME) ACTIVE
Info: PME TOLERANCE               1e-06
Info: PME EWALD COEFFICIENT       0.348832
Info: PME INTERPOLATION ORDER     4
Info: PME GRID DIMENSIONS         32 32 32
Info: PME MAXIMUM GRID SPACING    1
Info: PME CALCULATION WILL BE PERFORMED ON GPU
Info: FULL ELECTROSTATIC EVALUATION FREQUENCY      2
Info: USING VERLET I (r-RESPA) MTS SCHEME.
Info: C1 SPLITTING OF LONG RANGE ELECTROSTATICS
Info: PLACING ATOMS IN PATCHES BY HYDROGEN GROUPS
Info: RIGID BONDS TO HYDROGEN : ALL
Info:         ERROR TOLERANCE : 1e-08
Info:          MAX ITERATIONS : 100
Info: RIGID WATER USING SETTLE ALGORITHM
Info: RANDOM NUMBER SEED     1742577152
Info: USE HYDROGEN BONDS?    NO
Info: Using AMBER format force field!
Info: AMBER PARM FILE        mobley_1733799.prmtop
Info: COORDINATE PDB         mobley_1733799.pdb
Info: Exclusions will be read from PARM file!
Info: SCNB (VDW SCALING)     2
Info: USING ARITHMETIC MEAN TO COMBINE L-J SIGMA PARAMETERS
Info: BINARY COORDINATES     mobley_1733799_equil.coor
Info: SUMMARY OF PARAMETERS:
Info: 7 BONDS
Info: 5 ANGLES
Info:   5 HARMONIC
Info:   0 COSINE-BASED
Info: 3 DIHEDRAL
Info: 0 IMPROPER
Info: 0 CROSSTERM
Info: 0 VDW
Info: 28 VDW_PAIRS
Info: 0 NBTHOLE_PAIRS
Info: To read alchdata from file: mobley_1733799.pdb
Info: To read alchflag data from column: 5
Info: STRUCTURE SUMMARY:
Info: 2917 ATOMS
Info: 2917 BONDS
Info: 19 ANGLES
Info: 31 DIHEDRALS
Info: 0 IMPROPERS
Info: 0 CROSSTERMS
Info: 2959 EXCLUSIONS
Info: 2909 RIGID BONDS
Info: ALCH: 0 ATOMS TO DISAPPEAR IN FINAL STATE
Info: ALCH: 13 ATOMS TO APPEAR IN FINAL STATE
Info: 5842 DEGREES OF FREEDOM
Info: 976 HYDROGEN GROUPS
Info: 3 ATOMS IN LARGEST HYDROGEN GROUP
Info: 976 MIGRATION GROUPS
Info: 3 ATOMS IN LARGEST MIGRATION GROUP
Info: TOTAL MASS = 17612.5 amu
Info: TOTAL CHARGE = 0.000100002 e
Info: MASS DENSITY = 0.963035 g/cm^3
Info: ATOM DENSITY = 0.0960503 atoms/A^3
Info: ADDED 0 IMPLICIT EXCLUSIONS
Info: NONBONDED TABLE R-SQUARED SPACING: 0.0625
Info: NONBONDED TABLE SIZE: 705 POINTS
Info: REMOVING COM VELOCITY 0.0447376 -0.157029 -0.120817
Info: Use 3D box decompostion in PME FFT.
Info: Updated CUDA force table with 4096 elements.
Info: Updated CUDA LJ table with 7 x 7 elements.
Info: Found 15 unique exclusion lists needing 28 bytes
TCL: Running for 1500000 steps
ETITLE: TS BOND ANGLE DIHED IMPRP ELECT VDW BOUNDARY MISC KINETIC TOTAL TEMP POTENTIAL TOTALAVG TEMPAVG PRESSURE GPRESSURE VOLUME PRESSAVG GPRESSAVG
ENERGY: 0 2.5454 2.6954 1.7081 0.0000 -10438.6632 1318.2593 0.0000 0.0000 1797.5410 -7315.9140 309.6761 -9113.4550 -7315.9140 309.6761 -766.1232 -691.5065 30369.5088 -766.1232 -691.5065
ENERGY: 300000 1.5341 2.4570 2.6322 0.0000 -10568.9254 1418.2029 0.0000 0.0000 1721.8428 -7422.2565 296.6349 -9144.0993 -7407.2506 300.4251 -110.6502 -57.9905 30321.5340 -428.3533 -363.7718
ENERGY: 600000 1.3156 1.9857 4.5293 0.0000 -10880.0611 1641.5796 0.0000 0.0000 1698.9823 -7531.6685 292.6966 -9230.6508 -7409.6867 301.6815 1706.8932 1822.4477 29445.5381 -90.4969 -19.9818
ENERGY: 900000 1.0007 1.8461 4.7047 0.0000 -10418.2139 1256.4387 0.0000 0.0000 1752.8946 -7401.3291 301.9845 -9154.2237 -7410.5502 302.4542 -1143.6709 -1137.9515 30219.9471 -222.8793 -155.5250
ENERGY: 1200000 2.2815 1.1918 2.4925 0.0000 -10566.6457 1409.0465 0.0000 0.0000 1762.2624 -7389.3710 303.5984 -9151.6335 -7403.6619 302.3075 127.7889 134.0449 29768.0601 -156.2695 -103.3386
ENERGY: 1500000 2.3692 4.3123 2.4906 0.0000 -10724.0693 1479.6437 0.0000 0.0000 1725.2227 -7510.0308 297.2172 -9235.2535 -7408.2835 302.4005 619.4430 618.3308 29669.6743 -39.0681 13.4867
TCL: Running FEP window   2: Lambda1 0.95   Lambda2 0.8999999999999999 [dLambda -0.050000000000000044]
TCL: Setting parameter firsttimestep to 0
TCL: Setting parameter alchLambda to 0.95
Info: NONBONDED TABLE R-SQUARED SPACING: 0.0625
Info: NONBONDED TABLE SIZE: 705 POINTS
TCL: Setting parameter alchLambda2 to 0.8999999999999999
Info: NONBONDED TABLE R-SQUARED SPACING: 0.0625
Info: NONBONDED TABLE SIZE: 705 POINTS
TCL: Running for 1500000 steps
ETITLE: TS BOND ANGLE DIHED IMPRP ELECT VDW BOUNDARY MISC KINETIC TOTAL TEMP POTENTIAL TOTALAVG TEMPAVG PRESSURE GPRESSURE VOLUME PRESSAVG GPRESSAVG
ENERGY: 0 2.3692 4.3123 2.4906 0.0000 -10722.9351 1479.3982 0.0000 0.0000 1724.3347 -7510.0301 297.0642 -9234.3648 -7510.0301 297.0642 512.9681 605.0356 29669.6743 512.9681 605.0356
ENERGY: 300000 5.0870 3.1348 3.1348 0.0000 -10560.0186 1401.7776 0.0000 0.0000 1711.0871 -7435.7973 294.7820 -9146.8844 -7441.3102 297.6477 -294.0332 -129.8822 30227.4870 296.4394 380.9791
ENERGY: 600000 4.0261 2.1772 2.2449 0.0000 -10603.1495 1411.9358 0.0000 0.0000 1744.9369 -7437.8286 300.6135 -9182.7654 -7445.4977 297.4732 -248.7942 -228.2578 29933.5406 77.4253 154.6179
ENERGY: 900000 2.0749 2.0057 3.2392 0.0000 -10688.4647 1462.4997 0.0000 0.0000 1757.0958 -7461.5494 302.7083 -9218.6452 -7419.0269 299.0874 513.9416 525.3638 29631.8798 -0.4524 63.7379
ENERGY: 1200000 2.5175 7.1226 1.5756 0.0000 -10470.4477 1306.8226 0.0000 0.0000 1683.6114 -7468.7979 290.0485 -9152.4093 -7418.3638 298.8564 -1406.1481 -1314.5674 30872.7484 -119.6481 -54.2731
ENERGY: 1500000 1.9322 1.6953 2.2540 0.0000 -10609.4059 1429.0736 0.0000 0.0000 1740.3072 -7434.1436 299.8160 -9174.4508 -7421.7671 298.8511 -127.7179 -1.6935 30300.2819 -89.8397 -26.2995
TCL: Running FEP window   3: Lambda1 0.8999999999999999 Lambda2 0.8499999999999999 [dLambda -0.050000000000000044]
TCL: Setting parameter firsttimestep to 0
TCL: Setting parameter alchLambda to 0.8999999999999999
Info: NONBONDED TABLE R-SQUARED SPACING: 0.0625
Info: NONBONDED TABLE SIZE: 705 POINTS
TCL: Setting parameter alchLambda2 to 0.8499999999999999
Info: NONBONDED TABLE R-SQUARED SPACING: 0.0625
Info: NONBONDED TABLE SIZE: 705 POINTS
TCL: Running for 1500000 steps
ETITLE: TS BOND ANGLE DIHED IMPRP ELECT VDW BOUNDARY MISC KINETIC TOTAL TEMP POTENTIAL TOTALAVG TEMPAVG PRESSURE GPRESSURE VOLUME PRESSAVG GPRESSAVG
ENERGY: 0 1.9322 1.6953 2.2540 0.0000 -10607.3972 1427.9771 0.0000 0.0000 1739.4297 -7434.1089 299.6648 -9173.5385 -7434.1089 299.6648 -106.9118 -22.3093 30300.2819 -106.9118 -22.3093
ENERGY: 300000 2.0793 3.2445 3.7502 0.0000 -10524.9053 1389.1139 0.0000 0.0000 1793.8150 -7332.9024 309.0342 -9126.7174 -7357.4301 305.8029 -145.1219 -82.9341 30028.4863 -240.0286 -160.5258
ENERGY: 600000 3.0266 1.2814 2.4415 0.0000 -10632.5576 1423.1288 0.0000 0.0000 1749.6633 -7453.0160 301.4278 -9202.6793 -7392.3246 302.9213 -106.0447 -6.5928 30073.0683 -313.9697 -241.0253
ENERGY: 900000 4.5946 2.5122 3.8312 0.0000 -10529.1656 1360.8685 0.0000 0.0000 1728.9283 -7428.4310 297.8556 -9157.3593 -7412.2677 301.8178 -541.0431 -556.6957 30371.2572 -224.4702 -157.2145
ENERGY: 1200000 3.6763 6.0399 1.3704 0.0000 -10578.7569 1385.4914 0.0000 0.0000 1748.1480 -7434.0310 301.1668 -9182.1790 -7408.3079 302.1797 -634.7025 -573.4664 30738.6233 -231.8945 -164.4945
ENERGY: 1500000 2.4585 1.6091 2.7624 0.0000 -10606.2771 1365.7541 0.0000 0.0000 1706.2806 -7527.4123 293.9539 -9233.6929 -7416.8619 300.7774 -709.2345 -648.6275 30483.9626 -243.0472 -170.6541
TCL: Running FEP window   4: Lambda1 0.8499999999999999 Lambda2 0.7999999999999998 [dLambda -0.050000000000000044]
TCL: Setting parameter firsttimestep to 0
TCL: Setting parameter alchLambda to 0.8499999999999999
Info: NONBONDED TABLE R-SQUARED SPACING: 0.0625
Info: NONBONDED TABLE SIZE: 705 POINTS
TCL: Setting parameter alchLambda2 to 0.7999999999999998
Info: NONBONDED TABLE R-SQUARED SPACING: 0.0625
Info: NONBONDED TABLE SIZE: 705 POINTS
TCL: Running for 1500000 steps
ETITLE: TS BOND ANGLE DIHED IMPRP ELECT VDW BOUNDARY MISC KINETIC TOTAL TEMP POTENTIAL TOTALAVG TEMPAVG PRESSURE GPRESSURE VOLUME PRESSAVG GPRESSAVG
ENERGY: 0 2.4585 1.6091 2.7624 0.0000 -10604.4269 1365.1941 0.0000 0.0000 1705.4004 -7527.0024 293.8023 -9232.4028 -7527.0024 293.8023 -742.1623 -658.1161 30483.9626 -742.1623 -658.1161
ENERGY: 300000 1.4459 3.5926 4.1943 0.0000 -10610.9348 1474.8184 0.0000 0.0000 1795.0249 -7331.8586 309.2426 -9126.8835 -7434.4908 296.6094 557.5008 673.6065 30047.7461 -53.5842 19.8177
ENERGY: 600000 3.2236 4.8237 1.6666 0.0000 -10455.4857 1306.1780 0.0000 0.0000 1761.5866 -7378.0072 303.4819 -9139.5938 -7431.6476 296.5227 -584.3522 -527.9817 29970.9605 -168.6538 -92.3926
ENERGY: 900000 2.2536 2.7524 4.8446 0.0000 -10539.0703 1394.7707 0.0000 0.0000 1718.8245 -7415.6244 296.1150 -9134.4489 -7442.1183 295.2519 -145.0364 -98.6402 30139.5029 -147.0739 -72.3764
ENERGY: 1200000 1.8386 3.7345 3.8300 0.0000 -10535.0565 1405.3735 0.0000 0.0000 1706.6691 -7413.6107 294.0209 -9120.2799 -7436.8472 296.1816 -16.7111 44.9122 30009.4912 -152.5030 -90.6630
ENERGY: 1500000 0.8241 2.6391 1.5487 0.0000 -10547.9066 1361.3554 0.0000 0.0000 1718.5420 -7462.9975 296.0663 -9181.5395 -7434.9342 296.9366 -684.4692 -588.8103 30406.7409 -200.9749 -132.6408
TCL: Running FEP window   5: Lambda1 0.7999999999999998 Lambda2 0.7499999999999998 [dLambda -0.050000000000000044]
TCL: Setting parameter firsttimestep to 0
TCL: Setting parameter alchLambda to 0.7999999999999998
Info: NONBONDED TABLE R-SQUARED SPACING: 0.0625
Info: NONBONDED TABLE SIZE: 705 POINTS
TCL: Setting parameter alchLambda2 to 0.7499999999999998
Info: NONBONDED TABLE R-SQUARED SPACING: 0.0625
Info: NONBONDED TABLE SIZE: 705 POINTS
TCL: Running for 1500000 steps
ETITLE: TS BOND ANGLE DIHED IMPRP ELECT VDW BOUNDARY MISC KINETIC TOTAL TEMP POTENTIAL TOTALAVG TEMPAVG PRESSURE GPRESSURE VOLUME PRESSAVG GPRESSAVG
ENERGY: 0 0.8241 2.6391 1.5487 0.0000 -10546.6084 1361.5898 0.0000 0.0000 1717.6464 -7462.3604 295.9120 -9180.0068 -7462.3604 295.9120 -686.0870 -595.4668 30406.7409 -686.0870 -595.4668
ENERGY: 300000 1.2482 2.2444 4.5035 0.0000 -10758.3513 1517.0816 0.0000 0.0000 1709.7215 -7523.5523 294.5467 -9233.2738 -7479.1939 296.8464 560.6551 663.8424 29738.7426 -213.4474 -115.2880
ENERGY: 600000 1.3332 2.0458 3.6425 0.0000 -10646.4087 1434.6291 0.0000 0.0000 1780.7273 -7424.0308 306.7794 -9204.7581 -7457.7004 298.8714 130.0897 181.9468 29657.0534 -167.0377 -84.1107
ENERGY: 900000 1.3165 3.3548 3.8936 0.0000 -10501.2894 1351.5802 0.0000 0.0000 1773.4355 -7367.7089 305.5232 -9141.1443 -7447.3948 300.1481 -488.4303 -369.1975 30283.1217 -194.1303 -106.1096
ENERGY: 1200000 6.1176 3.6596 7.8102 0.0000 -10533.2219 1434.1476 0.0000 0.0000 1740.9798 -7340.5071 299.9318 -9081.4869 -7437.9069 299.7643 397.4226 466.6958 29518.4534 -166.8461 -82.6837
ENERGY: 1500000 1.9751 3.2324 3.8472 0.0000 -10511.1558 1346.1570 0.0000 0.0000 1712.0488 -7443.8954 294.9477 -9155.9442 -7434.5821 299.8727 -502.2318 -429.5977 30137.7185 -202.6118 -118.0116
TCL: Running FEP window   6: Lambda1 0.7499999999999998 Lambda2 0.6999999999999997 [dLambda -0.050000000000000044]
TCL: Setting parameter firsttimestep to 0
TCL: Setting parameter alchLambda to 0.7499999999999998
Info: NONBONDED TABLE R-SQUARED SPACING: 0.0625
Info: NONBONDED TABLE SIZE: 705 POINTS
TCL: Setting parameter alchLambda2 to 0.6999999999999997
Info: NONBONDED TABLE R-SQUARED SPACING: 0.0625
Info: NONBONDED TABLE SIZE: 705 POINTS
TCL: Running for 1500000 steps
ETITLE: TS BOND ANGLE DIHED IMPRP ELECT VDW BOUNDARY MISC KINETIC TOTAL TEMP POTENTIAL TOTALAVG TEMPAVG PRESSURE GPRESSURE VOLUME PRESSAVG GPRESSAVG
ENERGY: 0 1.9751 3.2324 3.8472 0.0000 -10509.3695 1345.5946 0.0000 0.0000 1711.1835 -7443.5368 294.7986 -9154.7202 -7443.5368 294.7986 -525.1785 -439.9018 30137.7185 -525.1785 -439.9018
ENERGY: 300000 2.2473 7.2927 2.7390 0.0000 -10454.5719 1378.0788 0.0000 0.0000 1731.6131 -7332.6010 298.3182 -9064.2142 -7411.7636 297.7342 -96.6048 -10.3985 30173.8859 -208.4468 -131.2661
ENERGY: 600000 4.4968 1.6062 2.5976 0.0000 -10452.6572 1341.6200 0.0000 0.0000 1742.4260 -7359.9106 300.1810 -9102.3366 -7395.6529 300.2585 -648.0413 -558.4555 30282.6675 -376.0518 -310.3381
ENERGY: 900000 1.9286 2.4274 1.8480 0.0000 -10717.6253 1506.8205 0.0000 0.0000 1676.4421 -7528.1587 288.8134 -9204.6009 -7407.8118 298.8820 492.4140 510.8576 29972.9814 -84.8503 -15.5300
ENERGY: 1200000 3.5273 1.2534 3.5597 0.0000 -10658.3697 1419.4836 0.0000 0.0000 1769.4078 -7461.1380 304.8293 -9230.5457 -7422.1263 298.7862 13.5471 -14.3053 30013.8152 -114.2061 -52.8237
ENERGY: 1500000 2.0899 3.6819 5.1704 0.0000 -10474.1948 1371.4441 0.0000 0.0000 1745.2814 -7346.5270 300.6729 -9091.8084 -7419.2022 299.5098 -588.2971 -464.2696 30782.8525 -75.2369 -8.8957
TCL: Running FEP window   7: Lambda1 0.6999999999999997 Lambda2 0.6499999999999997 [dLambda -0.050000000000000044]
TCL: Setting parameter firsttimestep to 0
TCL: Setting parameter alchLambda to 0.6999999999999997
Info: NONBONDED TABLE R-SQUARED SPACING: 0.0625
Info: NONBONDED TABLE SIZE: 705 POINTS
TCL: Setting parameter alchLambda2 to 0.6499999999999997
Info: NONBONDED TABLE R-SQUARED SPACING: 0.0625
Info: NONBONDED TABLE SIZE: 705 POINTS
TCL: Running for 1500000 steps
ETITLE: TS BOND ANGLE DIHED IMPRP ELECT VDW BOUNDARY MISC KINETIC TOTAL TEMP POTENTIAL TOTALAVG TEMPAVG PRESSURE GPRESSURE VOLUME PRESSAVG GPRESSAVG
ENERGY: 0 2.0899 3.6819 5.1704 0.0000 -10473.1668 1371.7421 0.0000 0.0000 1744.4329 -7346.0495 300.5267 -9090.4824 -7346.0495 300.5267 -546.8847 -466.4297 30782.8525 -546.8847 -466.4297
ENERGY: 300000 1.3820 2.4837 3.1702 0.0000 -10578.3554 1422.3410 0.0000 0.0000 1707.0603 -7441.9183 294.0883 -9148.9786 -7389.7163 298.4911 -14.3869 91.3637 29962.4550 -212.6165 -119.1873
ENERGY: 600000 3.2164 2.2447 2.0143 0.0000 -10540.9096 1467.2388 0.0000 0.0000 1726.3618 -7339.8337 297.4135 -9066.1955 -7397.3514 299.1205 488.5541 598.9651 30543.4772 30.9310 119.1064
ENERGY: 900000 5.4977 4.1777 2.2549 0.0000 -10451.1608 1328.5172 0.0000 0.0000 1745.3439 -7365.3694 300.6837 -9110.7133 -7386.5283 301.2429 -810.5597 -719.8785 30419.6396 -45.1168 25.3115
ENERGY: 1200000 2.6522 3.0936 5.5589 0.0000 -10527.3224 1385.1513 0.0000 0.0000 1794.7520 -7336.1144 309.1956 -9130.8664 -7388.2963 301.9538 -114.8020 -6.1278 29861.3420 -38.9417 35.3273
ENERGY: 1500000 2.2980 5.3411 7.5442 0.0000 -10454.8914 1314.5157 0.0000 0.0000 1741.5795 -7383.6130 300.0351 -9125.1925 -7394.5713 301.8943 -464.0364 -459.1815 29541.1412 -71.3329 -2.5986
TCL: Running FEP window   8: Lambda1 0.6499999999999997 Lambda2 0.5999999999999996 [dLambda -0.050000000000000044]
TCL: Setting parameter firsttimestep to 0
TCL: Setting parameter alchLambda to 0.6499999999999997
Info: NONBONDED TABLE R-SQUARED SPACING: 0.0625
Info: NONBONDED TABLE SIZE: 705 POINTS
TCL: Setting parameter alchLambda2 to 0.5999999999999996
Info: NONBONDED TABLE R-SQUARED SPACING: 0.0625
Info: NONBONDED TABLE SIZE: 705 POINTS
TCL: Running for 1500000 steps
ETITLE: TS BOND ANGLE DIHED IMPRP ELECT VDW BOUNDARY MISC KINETIC TOTAL TEMP POTENTIAL TOTALAVG TEMPAVG PRESSURE GPRESSURE VOLUME PRESSAVG GPRESSAVG
ENERGY: 0 2.2980 5.3411 7.5442 0.0000 -10453.3043 1314.2143 0.0000 0.0000 1740.7319 -7383.1748 299.8891 -9123.9067 -7383.1748 299.8891 -549.8088 -467.4945 29541.1412 -549.8088 -467.4945
ENERGY: 300000 1.6442 5.9455 4.2666 0.0000 -10651.1169 1470.6331 0.0000 0.0000 1743.6567 -7424.9709 300.3930 -9168.6276 -7440.5915 300.2841 323.2424 371.2090 30192.7715 133.1060 194.7994
ENERGY: 600000 2.3516 1.6059 1.9673 0.0000 -10464.5361 1330.6767 0.0000 0.0000 1757.8942 -7370.0405 302.8458 -9127.9347 -7426.4223 299.1272 -702.9228 -603.3090 30288.0046 -15.2649 36.4228
ENERGY: 900000 1.0140 2.2422 2.3860 0.0000 -10456.0896 1337.2061 0.0000 0.0000 1780.8447 -7332.3966 306.7997 -9113.2414 -7419.6467 300.2441 -634.7809 -540.4076 30362.7103 -120.7285 -63.1555
ENERGY: 1200000 3.3540 3.6946 3.8573 0.0000 -10724.2391 1476.5304 0.0000 0.0000 1779.8644 -7456.9383 306.6308 -9236.8028 -7424.2279 300.2570 195.8485 308.3030 30160.1246 -139.4699 -82.6929
ENERGY: 1500000 0.7806 4.5569 1.8998 0.0000 -10542.9452 1408.0253 0.0000 0.0000 1754.6010 -7373.0816 302.2785 -9127.6826 -7419.8431 299.9633 -41.6847 45.8493 30075.5982 -61.7511 -4.7706
TCL: Running FEP window   9: Lambda1 0.5999999999999996 Lambda2 0.5499999999999996 [dLambda -0.050000000000000044]
TCL: Setting parameter firsttimestep to 0
TCL: Setting parameter alchLambda to 0.5999999999999996
Info: NONBONDED TABLE R-SQUARED SPACING: 0.0625
Info: NONBONDED TABLE SIZE: 705 POINTS
TCL: Setting parameter alchLambda2 to 0.5499999999999996
Info: NONBONDED TABLE R-SQUARED SPACING: 0.0625
Info: NONBONDED TABLE SIZE: 705 POINTS
TCL: Running for 1500000 steps
ETITLE: TS BOND ANGLE DIHED IMPRP ELECT VDW BOUNDARY MISC KINETIC TOTAL TEMP POTENTIAL TOTALAVG TEMPAVG PRESSURE GPRESSURE VOLUME PRESSAVG GPRESSAVG
ENERGY: 0 0.7806 4.5569 1.8998 0.0000 -10542.8910 1407.9955 0.0000 0.0000 1753.7694 -7373.8888 302.1352 -9127.6582 -7373.8888 302.1352 -59.8836 38.3960 30075.5982 -59.8836 38.3960
ENERGY: 300000 1.8950 5.0215 3.8749 0.0000 -10646.4385 1403.0968 0.0000 0.0000 1734.2024 -7498.3477 298.7642 -9232.5502 -7458.2844 296.1296 -685.7077 -600.9329 30422.2506 -18.2419 54.7114
ENERGY: 600000 0.7640 2.9548 3.8608 0.0000 -10433.0770 1305.3281 0.0000 0.0000 1738.9258 -7381.2436 299.5780 -9120.1693 -7448.9539 296.6717 -631.1246 -605.7821 29688.2223 -93.7783 -35.2679
ENERGY: 900000 1.9908 2.7199 4.5314 0.0000 -10604.2500 1461.7887 0.0000 0.0000 1741.9921 -7391.2271 300.1062 -9133.2192 -7447.5420 296.9193 220.2388 271.2773 30369.0894 -119.0813 -71.3763
ENERGY: 1200000 2.2961 1.2010 5.2072 0.0000 -10656.7858 1492.7926 0.0000 0.0000 1755.7507 -7399.5382 302.4765 -9155.2889 -7430.4810 298.6328 366.8625 453.8735 30377.4280 -40.0916 12.5943
ENERGY: 1500000 4.3449 2.3274 4.8706 0.0000 -10627.5969 1383.9433 0.0000 0.0000 1747.4320 -7484.6787 301.0434 -9232.1107 -7421.0477 299.8945 -475.6578 -433.4305 29643.1396 -78.6991 -27.6157
TCL: Running FEP window  10: Lambda1 0.5499999999999996 Lambda2 0.4999999999999996 [dLambda -0.04999999999999999]
TCL: Setting parameter firsttimestep to 0
TCL: Setting parameter alchLambda to 0.5499999999999996
Info: NONBONDED TABLE R-SQUARED SPACING: 0.0625
Info: NONBONDED TABLE SIZE: 705 POINTS
TCL: Setting parameter alchLambda2 to 0.4999999999999996
Info: NONBONDED TABLE R-SQUARED SPACING: 0.0625
Info: NONBONDED TABLE SIZE: 705 POINTS
TCL: Running for 1500000 steps
ETITLE: TS BOND ANGLE DIHED IMPRP ELECT VDW BOUNDARY MISC KINETIC TOTAL TEMP POTENTIAL TOTALAVG TEMPAVG PRESSURE GPRESSURE VOLUME PRESSAVG GPRESSAVG
ENERGY: 0 4.3449 2.3274 4.8706 0.0000 -10627.3565 1384.1354 0.0000 0.0000 1746.5381 -7485.1402 300.8894 -9231.6783 -7485.1402 300.8894 -516.3025 -438.4775 29643.1396 -516.3025 -438.4775
ENERGY: 300000 5.0568 5.5803 4.2664 0.0000 -10350.4132 1323.7367 0.0000 0.0000 1733.3066 -7278.4664 298.6099 -9011.7730 -7374.9271 299.4469 -780.7623 -679.9441 30677.1207 -307.3039 -225.6806
ENERGY: 600000 2.9350 2.8062 0.8499 0.0000 -10815.9628 1507.1546 0.0000 0.0000 1729.1184 -7573.0986 297.8884 -9302.2170 -7415.2545 299.2578 330.2291 415.9249 29635.3827 -325.2972 -240.4023
ENERGY: 900000 1.2858 1.7254 2.1192 0.0000 -10495.8350 1387.0297 0.0000 0.0000 1770.1486 -7333.5263 304.9570 -9103.6749 -7409.3071 300.8519 -114.2981 -81.5360 30122.2158 -266.2062 -193.3436
ENERGY: 1200000 3.0429 1.8639 5.6563 0.0000 -10714.9346 1501.5978 0.0000 0.0000 1686.7654 -7516.0084 290.5919 -9202.7737 -7406.8635 300.3660 338.4861 362.2342 30208.2292 -200.7455 -137.2207
ENERGY: 1500000 2.0196 2.5300 2.1796 0.0000 -10603.9470 1431.6642 0.0000 0.0000 1741.4388 -7424.1148 300.0109 -9165.5536 -7410.4266 300.2339 112.9088 150.0987 29837.9016 -224.4472 -168.3039
TCL: Running FEP window  11: Lambda1 0.4999999999999996 Lambda2 0.4499999999999996 [dLambda -0.04999999999999999]
TCL: Setting parameter firsttimestep to 0
TCL: Setting parameter alchLambda to 0.4999999999999996
Info: NONBONDED TABLE R-SQUARED SPACING: 0.0625
Info: NONBONDED TABLE SIZE: 705 POINTS
TCL: Setting parameter alchLambda2 to 0.4499999999999996
Info: NONBONDED TABLE R-SQUARED SPACING: 0.0625
Info: NONBONDED TABLE SIZE: 705 POINTS
TCL: Running for 1500000 steps
ETITLE: TS BOND ANGLE DIHED IMPRP ELECT VDW BOUNDARY MISC KINETIC TOTAL TEMP POTENTIAL TOTALAVG TEMPAVG PRESSURE GPRESSURE VOLUME PRESSAVG GPRESSAVG
ENERGY: 0 2.0196 2.5300 2.1796 0.0000 -10603.3068 1431.8970 0.0000 0.0000 1740.5748 -7424.1059 299.8621 -9164.6806 -7424.1059 299.8621 62.7386 144.9837 29837.9016 62.7386 144.9837
ENERGY: 300000 3.0833 1.9882 6.3919 0.0000 -10454.9606 1350.7092 0.0000 0.0000 1767.8714 -7324.9165 304.5647 -9092.7880 -7392.5974 302.7432 -415.5389 -341.4876 30278.9967 -226.7938 -176.4308
ENERGY: 600000 2.2777 1.4507 2.8509 0.0000 -10505.4023 1403.6969 0.0000 0.0000 1687.6094 -7407.5168 290.7373 -9095.1263 -7393.1241 300.8198 -217.1933 -218.9893 30427.2824 -176.9396 -132.0557
ENERGY: 900000 1.7676 4.0626 2.4526 0.0000 -10583.6728 1444.5956 0.0000 0.0000 1784.6053 -7346.1892 307.4475 -9130.7945 -7387.1752 301.5605 160.6046 236.8209 30200.0224 -54.6547 -12.0219
ENERGY: 1200000 1.2080 2.9208 3.8980 0.0000 -10527.5526 1448.5469 0.0000 0.0000 1706.4187 -7364.5603 293.9777 -9070.9789 -7386.1623 301.6780 378.1772 451.9916 30140.4102 -17.2595 31.5591
ENERGY: 1500000 1.4865 2.4468 6.0109 0.0000 -10523.6691 1388.6219 0.0000 0.0000 1671.0269 -7454.0762 287.8805 -9125.1031 -7400.2204 300.4927 -184.5881 -197.0193 29947.0040 -73.4059 -32.7189
TCL: Running FEP window  12: Lambda1 0.4499999999999996 Lambda2 0.39999999999999963 [dLambda -0.04999999999999999]
TCL: Setting parameter firsttimestep to 0
TCL: Setting parameter alchLambda to 0.4499999999999996
Info: NONBONDED TABLE R-SQUARED SPACING: 0.0625
Info: NONBONDED TABLE SIZE: 705 POINTS
TCL: Setting parameter alchLambda2 to 0.39999999999999963
Info: NONBONDED TABLE R-SQUARED SPACING: 0.0625
Info: NONBONDED TABLE SIZE: 705 POINTS
TCL: Running for 1500000 steps
ETITLE: TS BOND ANGLE DIHED IMPRP ELECT VDW BOUNDARY MISC KINETIC TOTAL TEMP POTENTIAL TOTALAVG TEMPAVG PRESSURE GPRESSURE VOLUME PRESSAVG GPRESSAVG
ENERGY: 0 1.4865 2.4468 6.0109 0.0000 -10523.6688 1388.6925 0.0000 0.0000 1670.1863 -7454.8460 287.7357 -9125.0323 -7454.8460 287.7357 -292.9137 -205.2812 29947.0040 -292.9137 -205.2812
ENERGY: 300000 1.7042 1.5752 4.3860 0.0000 -10634.7055 1466.4435 0.0000 0.0000 1747.2155 -7413.3811 301.0061 -9160.5966 -7425.8823 294.3655 278.1274 357.3737 30104.4395 -201.5533 -143.7387
ENERGY: 600000 1.6662 2.5695 3.5522 0.0000 -10465.1370 1377.6100 0.0000 0.0000 1681.4117 -7398.3273 289.6696 -9079.7390 -7430.7679 294.9690 -276.6172 -226.3689 30234.1553 -144.7902 -88.4635
ENERGY: 900000 1.6023 1.9823 2.7821 0.0000 -10610.5447 1460.7593 0.0000 0.0000 1747.6842 -7395.7345 301.0868 -9143.4187 -7430.2387 295.6944 437.3282 478.5781 29965.4214 44.2420 100.6241
ENERGY: 1200000 0.8400 2.0599 1.4571 0.0000 -10507.5201 1443.9504 0.0000 0.0000 1733.1578 -7326.0548 298.5843 -9059.2126 -7414.3147 297.2507 690.6047 664.4135 29825.9412 106.5945 159.3816
ENERGY: 1500000 0.8819 3.1745 1.6163 0.0000 -10584.9323 1378.0926 0.0000 0.0000 1762.4385 -7438.7284 303.6287 -9201.1669 -7414.3228 298.1223 -481.4627 -393.4787 29698.7656 58.2995 120.8340
TCL: Running FEP window  13: Lambda1 0.39999999999999963 Lambda2 0.34999999999999964 [dLambda -0.04999999999999999]
TCL: Setting parameter firsttimestep to 0
TCL: Setting parameter alchLambda to 0.39999999999999963
Info: NONBONDED TABLE R-SQUARED SPACING: 0.0625
Info: NONBONDED TABLE SIZE: 705 POINTS
TCL: Setting parameter alchLambda2 to 0.34999999999999964
Info: NONBONDED TABLE R-SQUARED SPACING: 0.0625
Info: NONBONDED TABLE SIZE: 705 POINTS
TCL: Running for 1500000 steps
ETITLE: TS BOND ANGLE DIHED IMPRP ELECT VDW BOUNDARY MISC KINETIC TOTAL TEMP POTENTIAL TOTALAVG TEMPAVG PRESSURE GPRESSURE VOLUME PRESSAVG GPRESSAVG
ENERGY: 0 0.8819 3.1745 1.6163 0.0000 -10584.9323 1378.1552 0.0000 0.0000 1761.5803 -7439.5242 303.4808 -9201.1044 -7439.5242 303.4808 -485.1507 -394.9092 29698.7656 -485.1507 -394.9092
ENERGY: 300000 1.7561 2.2976 2.4563 0.0000 -10588.7531 1403.8720 0.0000 0.0000 1776.9789 -7401.3922 306.1337 -9178.3711 -7388.8137 302.6950 -198.3107 -155.0922 29993.2804 -244.9548 -154.2211
ENERGY: 600000 5.7921 2.4092 3.9019 0.0000 -10455.1997 1317.1720 0.0000 0.0000 1761.2205 -7364.7040 303.4189 -9125.9246 -7384.5441 302.8931 -645.2629 -613.6818 29685.1403 -322.1235 -240.9616
ENERGY: 900000 1.9218 3.6699 3.1231 0.0000 -10549.8962 1352.3079 0.0000 0.0000 1777.2661 -7411.6074 306.1831 -9188.8734 -7404.8239 302.9808 -761.9981 -647.6053 29944.7521 -278.1063 -195.4404
ENERGY: 1200000 1.8658 2.2637 1.0036 0.0000 -10557.9923 1402.9719 0.0000 0.0000 1742.5542 -7407.3332 300.2031 -9149.8874 -7406.1864 302.7445 -159.7970 -99.4892 29795.2879 -162.9154 -92.5977
ENERGY: 1500000 0.5160 1.4474 3.7992 0.0000 -10612.2581 1463.5518 0.0000 0.0000 1730.5702 -7412.3734 298.1385 -9142.9437 -7396.3322 302.9453 805.3762 821.1660 29341.0968 -96.1398 -36.7950
TCL: Running FEP window  14: Lambda1 0.34999999999999964 Lambda2 0.29999999999999966 [dLambda -0.04999999999999999]
TCL: Setting parameter firsttimestep to 0
TCL: Setting parameter alchLambda to 0.34999999999999964
Info: NONBONDED TABLE R-SQUARED SPACING: 0.0625
Info: NONBONDED TABLE SIZE: 705 POINTS
TCL: Setting parameter alchLambda2 to 0.29999999999999966
Info: NONBONDED TABLE R-SQUARED SPACING: 0.0625
Info: NONBONDED TABLE SIZE: 705 POINTS
TCL: Running for 1500000 steps
ETITLE: TS BOND ANGLE DIHED IMPRP ELECT VDW BOUNDARY MISC KINETIC TOTAL TEMP POTENTIAL TOTALAVG TEMPAVG PRESSURE GPRESSURE VOLUME PRESSAVG GPRESSAVG
ENERGY: 0 0.5160 1.4474 3.7992 0.0000 -10612.2578 1463.1525 0.0000 0.0000 1729.7205 -7413.6221 297.9921 -9143.3426 -7413.6221 297.9921 751.7349 809.8251 29341.0968 751.7349 809.8251
ENERGY: 300000 2.1254 5.6047 2.2762 0.0000 -10447.7941 1312.9783 0.0000 0.0000 1722.7022 -7402.1072 296.7830 -9124.8094 -7425.1789 298.8227 -791.0436 -715.7331 29826.3985 -26.1979 34.7071
ENERGY: 600000 1.5728 5.2167 5.7417 0.0000 -10657.1960 1511.9758 0.0000 0.0000 1735.5488 -7397.1402 298.9962 -9132.6890 -7405.0359 301.3260 823.1413 892.6813 29833.8357 112.5097 169.1992
ENERGY: 900000 4.4170 4.0384 3.3184 0.0000 -10559.7683 1435.9911 0.0000 0.0000 1729.1441 -7382.8592 297.8928 -9112.0033 -7405.9364 300.5640 183.0397 274.0000 29792.0093 26.7275 85.4378
ENERGY: 1200000 3.2605 5.2393 2.1198 0.0000 -10674.5319 1537.2822 0.0000 0.0000 1724.0847 -7402.5454 297.0212 -9126.6301 -7414.2372 300.1455 1248.7981 1288.8673 29707.1362 29.2795 88.0736
ENERGY: 1500000 3.8497 1.4915 2.6827 0.0000 -10507.9719 1399.5383 0.0000 0.0000 1769.2288 -7331.1809 304.7985 -9100.4097 -7411.1015 299.6517 -67.4785 -69.5820 30266.0074 -73.7431 -15.7686
TCL: Running FEP window  15: Lambda1 0.29999999999999966 Lambda2 0.24999999999999967 [dLambda -0.04999999999999999]
TCL: Setting parameter firsttimestep to 0
TCL: Setting parameter alchLambda to 0.29999999999999966
Info: NONBONDED TABLE R-SQUARED SPACING: 0.0625
Info: NONBONDED TABLE SIZE: 705 POINTS
TCL: Setting parameter alchLambda2 to 0.24999999999999967
Info: NONBONDED TABLE R-SQUARED SPACING: 0.0625
Info: NONBONDED TABLE SIZE: 705 POINTS
TCL: Running for 1500000 steps
ETITLE: TS BOND ANGLE DIHED IMPRP ELECT VDW BOUNDARY MISC KINETIC TOTAL TEMP POTENTIAL TOTALAVG TEMPAVG PRESSURE GPRESSURE VOLUME PRESSAVG GPRESSAVG
ENERGY: 0 3.8497 1.4915 2.6827 0.0000 -10507.9728 1399.4578 0.0000 0.0000 1768.3609 -7332.1303 304.6490 -9100.4911 -7332.1303 304.6490 -135.8613 -74.4031 30266.0074 -135.8613 -74.4031
ENERGY: 300000 7.0887 2.8181 2.0836 0.0000 -10579.9500 1417.8631 0.0000 0.0000 1760.7290 -7389.3674 303.3342 -9150.0964 -7423.6511 299.3654 85.6930 68.6158 29728.4942 166.7965 220.1936
ENERGY: 600000 2.9767 3.5577 6.8660 0.0000 -10622.0119 1422.5670 0.0000 0.0000 1751.6536 -7434.3908 301.7707 -9186.0444 -7429.7977 298.9184 -97.1438 -43.3201 29763.9758 -105.2286 -52.4178
ENERGY: 900000 2.0926 3.5831 5.7856 0.0000 -10525.8550 1368.8953 0.0000 0.0000 1803.0057 -7342.4927 310.6175 -9145.4984 -7432.3170 299.2282 -509.5121 -461.2828 30181.8649 -145.3692 -92.9635
ENERGY: 1200000 3.3657 2.1052 3.5074 0.0000 -10585.7613 1390.2640 0.0000 0.0000 1715.3240 -7471.1950 295.5119 -9186.5190 -7426.8949 299.7669 -92.9777 -41.4438 29553.5079 -151.8430 -94.5271
ENERGY: 1500000 1.2151 1.4344 2.1750 0.0000 -10647.6592 1536.7681 0.0000 0.0000 1764.9977 -7341.0690 304.0696 -9106.0667 -7419.6727 299.9285 1157.8477 1154.5736 30048.5964 -31.0021 25.4268
TCL: Running FEP window  16: Lambda1 0.24999999999999967 Lambda2 0.19999999999999968 [dLambda -0.04999999999999999]
TCL: Setting parameter firsttimestep to 0
TCL: Setting parameter alchLambda to 0.24999999999999967
Info: NONBONDED TABLE R-SQUARED SPACING: 0.0625
Info: NONBONDED TABLE SIZE: 705 POINTS
TCL: Setting parameter alchLambda2 to 0.19999999999999968
Info: NONBONDED TABLE R-SQUARED SPACING: 0.0625
Info: NONBONDED TABLE SIZE: 705 POINTS
TCL: Running for 1500000 steps
ETITLE: TS BOND ANGLE DIHED IMPRP ELECT VDW BOUNDARY MISC KINETIC TOTAL TEMP POTENTIAL TOTALAVG TEMPAVG PRESSURE GPRESSURE VOLUME PRESSAVG GPRESSAVG
ENERGY: 0 1.2151 1.4344 2.1750 0.0000 -10647.6600 1536.5200 0.0000 0.0000 1764.1261 -7342.1894 303.9194 -9106.3155 -7342.1894 303.9194 1072.7431 1145.2726 30048.5964 1072.7431 1145.2726
ENERGY: 300000 1.1741 1.9800 4.3567 0.0000 -10435.5337 1280.8126 0.0000 0.0000 1725.4401 -7421.7701 297.2547 -9147.2102 -7420.3974 296.3897 -1019.2841 -931.7144 29936.0193 -142.5795 -61.1351
ENERGY: 600000 1.8461 1.5932 1.2440 0.0000 -10628.1447 1460.3247 0.0000 0.0000 1691.8214 -7471.3153 291.4629 -9163.1367 -7404.5236 297.1458 327.9600 323.9228 29660.8050 -87.8490 -27.1182
ENERGY: 900000 2.5673 3.3426 3.7903 0.0000 -10663.8430 1459.7886 0.0000 0.0000 1774.4246 -7419.9296 305.6936 -9194.3542 -7412.8240 298.3580 78.7064 132.0495 30114.4075 -167.0273 -105.3693
ENERGY: 1200000 3.8255 3.4198 5.0974 0.0000 -10389.2315 1312.5648 0.0000 0.0000 1770.9168 -7293.4071 305.0893 -9064.3239 -7404.0679 298.6465 -549.4089 -526.2989 30090.8810 -57.5049 5.4760
ENERGY: 1500000 3.3694 1.9302 3.0407 0.0000 -10580.8451 1452.0609 0.0000 0.0000 1726.4743 -7393.9695 297.4329 -9120.4438 -7396.2173 298.9937 227.5212 315.7718 30354.5670 -32.2708 28.5844
TCL: Running FEP window  17: Lambda1 0.19999999999999968 Lambda2 0.1499999999999997 [dLambda -0.04999999999999999]
TCL: Setting parameter firsttimestep to 0
TCL: Setting parameter alchLambda to 0.19999999999999968
Info: NONBONDED TABLE R-SQUARED SPACING: 0.0625
Info: NONBONDED TABLE SIZE: 705 POINTS
TCL: Setting parameter alchLambda2 to 0.1499999999999997
Info: NONBONDED TABLE R-SQUARED SPACING: 0.0625
Info: NONBONDED TABLE SIZE: 705 POINTS
TCL: Running for 1500000 steps
ETITLE: TS BOND ANGLE DIHED IMPRP ELECT VDW BOUNDARY MISC KINETIC TOTAL TEMP POTENTIAL TOTALAVG TEMPAVG PRESSURE GPRESSURE VOLUME PRESSAVG GPRESSAVG
ENERGY: 0 3.3694 1.9302 3.0407 0.0000 -10580.8452 1451.7297 0.0000 0.0000 1725.5935 -7395.1818 297.2811 -9120.7753 -7395.1818 297.2811 236.2227 311.9500 30354.5670 236.2227 311.9500
ENERGY: 300000 0.6382 3.9489 4.5737 0.0000 -10525.5113 1394.8467 0.0000 0.0000 1716.2933 -7405.2105 295.6789 -9121.5038 -7405.4006 298.6250 -10.5058 21.7470 29878.2506 -36.5154 21.2839
ENERGY: 600000 1.4525 2.8613 3.6978 0.0000 -10686.1904 1482.9708 0.0000 0.0000 1757.1016 -7438.1063 302.7093 -9195.2079 -7403.1183 298.7325 322.7852 377.8224 30141.6938 46.0321 112.8106
ENERGY: 900000 4.0801 2.7856 1.7985 0.0000 -10589.6222 1401.6336 0.0000 0.0000 1668.9557 -7510.3687 287.5237 -9179.3244 -7428.3870 297.1555 -256.3559 -172.0842 29495.6418 58.2434 120.3020
ENERGY: 1200000 3.7597 4.1643 5.5136 0.0000 -10689.3047 1463.7518 0.0000 0.0000 1743.6009 -7468.5144 300.3834 -9212.1153 -7425.8226 297.8447 101.5891 211.9890 29833.9480 109.0484 174.0364
ENERGY: 1500000 2.4756 1.3829 2.5478 0.0000 -10786.8420 1555.3994 0.0000 0.0000 1666.5094 -7558.5269 287.1023 -9225.0363 -7427.4185 297.2740 790.7067 817.0694 29766.9124 65.4040 128.5138
TCL: Running FEP window  18: Lambda1 0.1499999999999997 Lambda2 0.09999999999999969 [dLambda -0.05 ]
TCL: Setting parameter firsttimestep to 0
TCL: Setting parameter alchLambda to 0.1499999999999997
Info: NONBONDED TABLE R-SQUARED SPACING: 0.0625
Info: NONBONDED TABLE SIZE: 705 POINTS
TCL: Setting parameter alchLambda2 to 0.09999999999999969
Info: NONBONDED TABLE R-SQUARED SPACING: 0.0625
Info: NONBONDED TABLE SIZE: 705 POINTS
TCL: Running for 1500000 steps
ETITLE: TS BOND ANGLE DIHED IMPRP ELECT VDW BOUNDARY MISC KINETIC TOTAL TEMP POTENTIAL TOTALAVG TEMPAVG PRESSURE GPRESSURE VOLUME PRESSAVG GPRESSAVG
ENERGY: 0 2.4756 1.3829 2.5478 0.0000 -10786.8407 1555.7562 0.0000 0.0000 1665.6288 -7559.0495 286.9505 -9224.6783 -7559.0495 286.9505 746.0935 815.7662 29766.9124 746.0935 815.7662
ENERGY: 300000 2.9161 4.0681 2.0482 0.0000 -10695.5522 1474.5621 0.0000 0.0000 1662.8018 -7549.1559 286.4635 -9211.9577 -7489.6199 290.1320 164.6599 151.9175 29813.9832 260.6002 319.4367
ENERGY: 600000 1.9132 3.4395 1.8799 0.0000 -10541.9929 1365.2406 0.0000 0.0000 1698.9256 -7470.5940 292.6868 -9169.5196 -7447.3156 295.1224 -630.2320 -564.3603 29836.7791 108.1450 172.6282
ENERGY: 900000 2.5465 2.7113 1.3743 0.0000 -10535.8783 1435.3474 0.0000 0.0000 1782.2340 -7311.6647 307.0390 -9093.8987 -7425.4533 296.2656 211.2341 227.0191 30161.9573 88.5206 145.1503
ENERGY: 1200000 2.2718 3.5424 2.7647 0.0000 -10510.9115 1355.5202 0.0000 0.0000 1753.8236 -7392.9888 302.1445 -9146.8124 -7416.0065 297.7693 -580.2111 -507.7950 29938.9305 60.7417 108.9090
ENERGY: 1500000 2.0235 4.5897 4.9169 0.0000 -10538.1723 1344.3671 0.0000 0.0000 1787.7926 -7394.4825 307.9966 -9182.2752 -7412.2455 298.8378 -658.5685 -593.4380 29796.4155 65.6585 111.3598
TCL: Running FEP window  19: Lambda1 0.09999999999999969 Lambda2 0.049999999999999684 [dLambda -0.05 ]
TCL: Setting parameter firsttimestep to 0
TCL: Setting parameter alchLambda to 0.09999999999999969
Info: NONBONDED TABLE R-SQUARED SPACING: 0.0625
Info: NONBONDED TABLE SIZE: 705 POINTS
TCL: Setting parameter alchLambda2 to 0.049999999999999684
Info: NONBONDED TABLE R-SQUARED SPACING: 0.0625
Info: NONBONDED TABLE SIZE: 705 POINTS
TCL: Running for 1500000 steps
ETITLE: TS BOND ANGLE DIHED IMPRP ELECT VDW BOUNDARY MISC KINETIC TOTAL TEMP POTENTIAL TOTALAVG TEMPAVG PRESSURE GPRESSURE VOLUME PRESSAVG GPRESSAVG
ENERGY: 0 2.0235 4.5897 4.9169 0.0000 -10538.1731 1344.6785 0.0000 0.0000 1786.9150 -7395.0496 307.8454 -9181.9646 -7395.0496 307.8454 -685.4321 -594.0423 29796.4155 -685.4321 -594.0423
ENERGY: 300000 3.1640 1.3358 1.5656 0.0000 -10565.6162 1358.3567 0.0000 0.0000 1747.9361 -7453.2580 301.1302 -9201.1941 -7407.7195 303.6776 -944.4528 -864.3261 30353.3737 -516.3383 -455.4542
ENERGY: 600000 1.0599 3.5410 3.8194 0.0000 -10555.9295 1390.0368 0.0000 0.0000 1732.2888 -7425.1836 298.4346 -9157.4724 -7410.9799 300.5465 -418.2920 -364.3471 30035.8311 -274.7110 -220.8899
ENERGY: 900000 1.9665 3.0071 3.4275 0.0000 -10599.6021 1424.5371 0.0000 0.0000 1716.3958 -7450.2680 295.6966 -9166.6638 -7417.0727 299.3230 39.3266 74.7227 29739.7274 -163.4200 -102.3214
ENERGY: 1200000 4.1527 1.4664 3.3704 0.0000 -10496.1548 1384.1600 0.0000 0.0000 1734.1884 -7368.8169 298.7618 -9103.0054 -7411.5618 299.4121 -365.0957 -287.1174 30124.8025 -166.5277 -116.0466
ENERGY: 1500000 1.0236 5.9118 5.6104 0.0000 -10745.5038 1490.2482 0.0000 0.0000 1766.2106 -7476.4991 304.2785 -9242.7097 -7413.8085 299.8634 413.5663 404.9673 29845.0193 -132.9443 -86.1816
TCL: Running FEP window  20: Lambda1 0.049999999999999684 Lambda2 0.0    [dLambda -0.049999999999999684]
TCL: Setting parameter firsttimestep to 0
TCL: Setting parameter alchLambda to 0.049999999999999684
Info: NONBONDED TABLE R-SQUARED SPACING: 0.0625
Info: NONBONDED TABLE SIZE: 705 POINTS
TCL: Setting parameter alchLambda2 to 0.0
Info: NONBONDED TABLE R-SQUARED SPACING: 0.0625
Info: NONBONDED TABLE SIZE: 705 POINTS
TCL: Running for 1500000 steps
ETITLE: TS BOND ANGLE DIHED IMPRP ELECT VDW BOUNDARY MISC KINETIC TOTAL TEMP POTENTIAL TOTALAVG TEMPAVG PRESSURE GPRESSURE VOLUME PRESSAVG GPRESSAVG
ENERGY: 0 1.0236 5.9118 5.6104 0.0000 -10745.5036 1489.8875 0.0000 0.0000 1765.3383 -7477.7320 304.1283 -9243.0703 -7477.7320 304.1283 308.6698 400.9277 29845.0193 308.6698 400.9277
ENERGY: 300000 4.4499 5.0740 3.7421 0.0000 -10598.4933 1389.7150 0.0000 0.0000 1797.2950 -7398.2175 309.6337 -9195.5125 -7460.8689 301.5496 -210.7433 -172.4451 30094.6008 -335.1509 -252.2055
ENERGY: 600000 2.8147 3.6274 2.8376 0.0000 -10663.2158 1469.7939 0.0000 0.0000 1711.0277 -7473.1145 294.7718 -9184.1422 -7451.1372 300.9528 209.5967 279.7841 29987.4689 -282.8738 -199.1761
ENERGY: 900000 2.7045 3.1874 0.9244 0.0000 -10453.0635 1333.0144 0.0000 0.0000 1747.4409 -7365.7920 301.0449 -9113.2329 -7430.6446 301.4459 -713.8005 -607.2257 29974.0657 -358.5852 -274.0339
ENERGY: 1200000 3.9011 3.8560 2.1572 0.0000 -10611.0341 1407.9351 0.0000 0.0000 1744.0634 -7449.1212 300.4631 -9193.1846 -7435.2470 300.9673 -314.1395 -314.3602 29976.9121 -396.1025 -328.2415
ENERGY: 1500000 2.9777 2.7228 2.3669 0.0000 -10687.3776 1531.7110 0.0000 0.0000 1749.5619 -7398.0375 301.4103 -9147.5994 -7433.9607 301.1026 991.7704 1018.1556 29617.5264 -205.2644 -138.6574
TCL: Exiting due to exit command.
