Info: SIMULATION PARAMETERS:
Info: TIMESTEP               2
Info: NUMBER OF STEPS        0
Info: STEPS PER CYCLE        10
Info: PERIODIC CELL BASIS 1  34.207 0 0
Info: PERIODIC CELL BASIS 2  0 35.847 0
Info: PERIODIC CELL BASIS 3  0 0 36.199
Info: PERIODIC CELL CENTER   0 0 0
Info: WRAPPING WATERS AROUND PERIODIC BOUNDARIES ON OUTPUT.
Info: WRAPPING ALL CLUSTERS AROUND PERIODIC BOUNDARIES ON OUTPUT.
Info: FIRST LDB TIMESTEP     50
Info: LAST LDB TIMESTEP     -1
Info: HOM BACKGROUND SCALING 1
Info: PME BACKGROUND SCALING 1
Info: MIN ATOMS PER PATCH    40
Info: EMPTY PATCH LOAD       40 ATOMS
Info: INITIAL TEMPERATURE    300
Info: CENTER OF MASS MOVING INITIALLY? NO
Info: DIELECTRIC             1
Info: EXCLUDE                SCALED ONE-FOUR
Info: 1-4 ELECTROSTATICS SCALED BY 0.833333
Info: MODIFIED 1-4 VDW PARAMETERS WILL BE USED
Info: DCD FILENAME           mobley_6239320_equil.dcd
Info: DCD FREQUENCY          100000
Info: DCD FIRST STEP         100000
Info: DCD FILE WILL CONTAIN UNIT CELL DATA
Info: XST FILENAME           mobley_6239320_equil.xst
Info: XST FREQUENCY          100000
Info: NO VELOCITY DCD OUTPUT
Info: NO FORCE DCD OUTPUT
Info: OUTPUT FILENAME        mobley_6239320_equil
Info: BINARY OUTPUT FILES WILL BE USED
Info: RESTART FILENAME       mobley_6239320_equil.restart
Info: RESTART FREQUENCY      100000
Info: BINARY RESTART FILES WILL BE USED
Info: CUTOFF                 9
Info: PAIRLIST DISTANCE      11
Info: PAIRLIST SHRINK RATE   0.01
Info: PAIRLIST GROW RATE     0.01
Info: PAIRLIST TRIGGER       0.3
Info: PAIRLISTS PER CYCLE    2
Info: PAIRLISTS ENABLED
Info: MARGIN                 8
Info: HYDROGEN GROUP CUTOFF  2.5
Info: PATCH DIMENSION        21.5
Info: ENERGY OUTPUT STEPS    100000
Info: ENERGY EVALUATION STEPS    100000
Info: OUTPUT ENERGY PRECISION 4
Info: CROSSTERM ENERGY INCLUDED IN DIHEDRAL
Info: TIMING OUTPUT STEPS    1000000
Info: PRESSURE OUTPUT STEPS  100000
Info: FIXED ATOMS ACTIVE
Info: LANGEVIN DYNAMICS ACTIVE
Info: LANGEVIN TEMPERATURE   30
Info: LANGEVIN USING BBK INTEGRATOR
Info: LANGEVIN DAMPING COEFFICIENT IS 1 INVERSE PS
Info: LANGEVIN DYNAMICS APPLIED TO HYDROGENS
Info: LANGEVIN PISTON PRESSURE CONTROL ACTIVE
Info:        TARGET PRESSURE IS 1.01325 BAR
Info:     OSCILLATION PERIOD IS 50 FS
Info:             DECAY TIME IS 25 FS
Info:     PISTON TEMPERATURE IS 300 K
Info:       PRESSURE CONTROL IS GROUP-BASED
Info:    INITIAL STRAIN RATE IS 0 0 0
Info:       CELL FLUCTUATION IS ISOTROPIC
Info: PARTICLE MESH EWALD (PME) ACTIVE
Info: PME TOLERANCE               1e-06
Info: PME EWALD COEFFICIENT       0.348832
Info: PME INTERPOLATION ORDER     4
Info: PME GRID DIMENSIONS         36 36 40
Info: PME MAXIMUM GRID SPACING    1
Info: FULL ELECTROSTATIC EVALUATION FREQUENCY      2
Info: USING VERLET I (r-RESPA) MTS SCHEME.
Info: C1 SPLITTING OF LONG RANGE ELECTROSTATICS
Info: PLACING ATOMS IN PATCHES BY HYDROGEN GROUPS
Info: RIGID BONDS TO HYDROGEN : ALL
Info:         ERROR TOLERANCE : 1e-08
Info:          MAX ITERATIONS : 100
Info: RIGID WATER USING SETTLE ALGORITHM
Info: RANDOM NUMBER SEED     1742720369
Info: USE HYDROGEN BONDS?    NO
Info: Using AMBER format force field!
Info: AMBER PARM FILE        mobley_6239320.prmtop
Info: COORDINATE PDB         mobley_6239320.pdb
Info: Exclusions will be read from PARM file!
Info: SCNB (VDW SCALING)     2
Info: USING ARITHMETIC MEAN TO COMBINE L-J SIGMA PARAMETERS
Info: BINARY COORDINATES     mobley_6239320_min.coor
Info: SUMMARY OF PARAMETERS:
Info: 5 BONDS
Info: 4 ANGLES
Info:   4 HARMONIC
Info:   0 COSINE-BASED
Info: 4 DIHEDRAL
Info: 0 IMPROPER
Info: 0 CROSSTERM
Info: 0 VDW
Info: 21 VDW_PAIRS
Info: 0 NBTHOLE_PAIRS
Info: STRUCTURE SUMMARY:
Info: 2988 ATOMS
Info: 2988 BONDS
Info: 18 ANGLES
Info: 36 DIHEDRALS
Info: 0 IMPROPERS
Info: 0 CROSSTERMS
Info: 3027 EXCLUSIONS
Info: 12 FIXED ATOMS
Info: 2979 RIGID BONDS
Info: 3 RIGID BONDS BETWEEN FIXED ATOMS
Info: 5952 DEGREES OF FREEDOM
Info: 1001 HYDROGEN GROUPS
Info: 3 ATOMS IN LARGEST HYDROGEN GROUP
Info: 1001 MIGRATION GROUPS
Info: 3 ATOMS IN LARGEST MIGRATION GROUP
Info: 9 HYDROGEN GROUPS WITH ALL ATOMS FIXED
Info: TOTAL MASS = 18001 amu
Info: TOTAL CHARGE = 0.000199944 e
Info: MASS DENSITY = 0.673427 g/cm^3
Info: ATOM DENSITY = 0.0673157 atoms/A^3
Info: ADDED 0 IMPLICIT EXCLUSIONS
Info: NONBONDED TABLE R-SQUARED SPACING: 0.0625
Info: NONBONDED TABLE SIZE: 705 POINTS
Info: REMOVING COM VELOCITY 0.0909038 0.0633103 0.0376373
TCL: Running for 100000 steps
ETITLE: TS BOND ANGLE DIHED IMPRP ELECT VDW BOUNDARY MISC KINETIC TOTAL TEMP POTENTIAL TOTAL3 TEMPAVG PRESSURE GPRESSURE VOLUME PRESSAVG GPRESSAVG
ENERGY: 0 0.0000 0.0000 0.0000 0.0000 -14223.3766 2439.4203 0.0000 0.0000 1755.2927 -10028.6637 296.8090 -11783.9563 -10028.3040 296.8090 393.8565 433.0023 44387.8773 393.8565 433.0023
ENERGY: 100000 0.0000 0.0000 0.0000 0.0000 -14733.5752 2541.0024 0.0000 0.0000 176.1924 -12016.3804 29.7930 -12192.5728 -12015.9149 30.9272 326.1834 395.2235 29239.9049 4.4673 4.4242
TCL: Running 100000 steps at 60 kelvin.
TCL: Setting parameter langevinTemp to 60
TCL: Running for 100000 steps
ETITLE: TS BOND ANGLE DIHED IMPRP ELECT VDW BOUNDARY MISC KINETIC TOTAL TEMP POTENTIAL TOTAL3 TEMPAVG PRESSURE GPRESSURE VOLUME PRESSAVG GPRESSAVG
ENERGY: 100000 0.0000 0.0000 0.0000 0.0000 -14733.5752 2541.0024 0.0000 0.0000 176.1040 -12016.4687 29.7781 -12192.5728 -12016.1148 29.7781 331.4204 394.9849 29239.9049 331.4204 394.9849
ENERGY: 200000 0.0000 0.0000 0.0000 0.0000 -14596.0477 2468.0629 0.0000 0.0000 344.2062 -11783.7785 58.2031 -12127.9847 -11782.5425 59.9114 136.0641 177.9342 29170.7623 2.6741 2.7291
TCL: Running 100000 steps at 90 kelvin.
TCL: Setting parameter langevinTemp to 90
TCL: Running for 100000 steps
ETITLE: TS BOND ANGLE DIHED IMPRP ELECT VDW BOUNDARY MISC KINETIC TOTAL TEMP POTENTIAL TOTAL3 TEMPAVG PRESSURE GPRESSURE VOLUME PRESSAVG GPRESSAVG
ENERGY: 200000 0.0000 0.0000 0.0000 0.0000 -14596.0477 2468.0629 0.0000 0.0000 344.0344 -11783.9503 58.1741 -12127.9847 -11783.2762 58.1741 126.9345 178.3692 29170.7623 126.9345 178.3692
ENERGY: 300000 0.0000 0.0000 0.0000 0.0000 -14521.5569 2455.4998 0.0000 0.0000 524.1389 -11541.9183 88.6286 -12066.0572 -11540.4052 89.8887 275.9635 301.1364 29016.4605 4.9201 4.9149
TCL: Running 100000 steps at 120 kelvin.
TCL: Setting parameter langevinTemp to 120
TCL: Running for 100000 steps
ETITLE: TS BOND ANGLE DIHED IMPRP ELECT VDW BOUNDARY MISC KINETIC TOTAL TEMP POTENTIAL TOTAL3 TEMPAVG PRESSURE GPRESSURE VOLUME PRESSAVG GPRESSAVG
ENERGY: 300000 0.0000 0.0000 0.0000 0.0000 -14521.5569 2455.4998 0.0000 0.0000 523.8785 -11542.1787 88.5846 -12066.0572 -11541.1653 88.5846 251.0554 301.0896 29016.4605 251.0554 301.0896
ENERGY: 400000 0.0000 0.0000 0.0000 0.0000 -14187.0923 2260.5902 0.0000 0.0000 705.6471 -11220.8549 119.3205 -11926.5020 -11219.6112 119.8935 -785.4213 -745.6710 28985.9480 3.7552 3.7319
TCL: Running 100000 steps at 150 kelvin.
TCL: Setting parameter langevinTemp to 150
TCL: Running for 100000 steps
ETITLE: TS BOND ANGLE DIHED IMPRP ELECT VDW BOUNDARY MISC KINETIC TOTAL TEMP POTENTIAL TOTAL3 TEMPAVG PRESSURE GPRESSURE VOLUME PRESSAVG GPRESSAVG
ENERGY: 400000 0.0000 0.0000 0.0000 0.0000 -14187.0923 2260.5902 0.0000 0.0000 705.3002 -11221.2019 119.2618 -11926.5020 -11219.7378 119.2618 -811.9441 -745.3650 28985.9480 -811.9441 -745.3650
ENERGY: 500000 0.0000 0.0000 0.0000 0.0000 -13993.7828 2220.7584 0.0000 0.0000 880.0927 -10892.9317 148.8181 -11773.0244 -10890.1865 150.0983 -640.9823 -582.4012 29337.3735 3.3522 3.3844
TCL: Running 100000 steps at 180 kelvin.
TCL: Setting parameter langevinTemp to 180
TCL: Running for 100000 steps
ETITLE: TS BOND ANGLE DIHED IMPRP ELECT VDW BOUNDARY MISC KINETIC TOTAL TEMP POTENTIAL TOTAL3 TEMPAVG PRESSURE GPRESSURE VOLUME PRESSAVG GPRESSAVG
ENERGY: 500000 0.0000 0.0000 0.0000 0.0000 -13993.7828 2220.7584 0.0000 0.0000 879.6435 -10893.3808 148.7422 -11773.0244 -10891.4112 148.7422 -629.5915 -582.3391 29337.3735 -629.5915 -582.3391
ENERGY: 600000 0.0000 0.0000 0.0000 0.0000 -13539.9738 2106.9142 0.0000 0.0000 1027.4129 -10405.6466 173.7291 -11433.0596 -10403.4865 180.1275 -228.6604 -184.0235 29111.4375 4.0640 4.0050
TCL: Running 100000 steps at 210 kelvin.
TCL: Setting parameter langevinTemp to 210
TCL: Running for 100000 steps
ETITLE: TS BOND ANGLE DIHED IMPRP ELECT VDW BOUNDARY MISC KINETIC TOTAL TEMP POTENTIAL TOTAL3 TEMPAVG PRESSURE GPRESSURE VOLUME PRESSAVG GPRESSAVG
ENERGY: 600000 0.0000 0.0000 0.0000 0.0000 -13539.9738 2106.9142 0.0000 0.0000 1026.8665 -10406.1931 173.6367 -11433.0596 -10404.2344 173.6367 -239.6434 -183.6126 29111.4375 -239.6434 -183.6126
ENERGY: 700000 0.0000 0.0000 0.0000 0.0000 -12907.1804 1929.9367 0.0000 0.0000 1234.7529 -9742.4908 208.7890 -10977.2437 -9741.1141 209.6105 -133.7530 -96.3210 29566.3205 3.3977 3.4371
TCL: Running 100000 steps at 240 kelvin.
TCL: Setting parameter langevinTemp to 240
TCL: Running for 100000 steps
ETITLE: TS BOND ANGLE DIHED IMPRP ELECT VDW BOUNDARY MISC KINETIC TOTAL TEMP POTENTIAL TOTAL3 TEMPAVG PRESSURE GPRESSURE VOLUME PRESSAVG GPRESSAVG
ENERGY: 700000 0.0000 0.0000 0.0000 0.0000 -12907.1804 1929.9367 0.0000 0.0000 1234.1204 -9743.1233 208.6820 -10977.2437 -9741.1269 208.6820 -175.9199 -97.7502 29566.3205 -175.9199 -97.7502
ENERGY: 800000 0.0000 0.0000 0.0000 0.0000 -12470.4700 1849.2228 0.0000 0.0000 1372.5909 -9248.6563 232.0965 -10621.2472 -9245.0143 240.2712 730.8050 884.4553 28989.9333 4.1888 4.0708
TCL: Running 100000 steps at 270 kelvin.
TCL: Setting parameter langevinTemp to 270
TCL: Running for 100000 steps
ETITLE: TS BOND ANGLE DIHED IMPRP ELECT VDW BOUNDARY MISC KINETIC TOTAL TEMP POTENTIAL TOTAL3 TEMPAVG PRESSURE GPRESSURE VOLUME PRESSAVG GPRESSAVG
ENERGY: 800000 0.0000 0.0000 0.0000 0.0000 -12470.4700 1849.2228 0.0000 0.0000 1371.8830 -9249.3642 231.9768 -10621.2472 -9247.0342 231.9768 792.3907 883.2451 28989.9333 792.3907 883.2451
ENERGY: 900000 0.0000 0.0000 0.0000 0.0000 -11604.6209 1523.0371 0.0000 0.0000 1609.4863 -8472.0975 272.1540 -10081.5838 -8469.2585 269.8381 -568.0636 -523.9847 30500.8028 2.7552 2.7363
TCL: Running 1000000 steps at 300 kelvin.
TCL: Setting parameter langevinTemp to 300
TCL: Running for 1000000 steps
ETITLE: TS BOND ANGLE DIHED IMPRP ELECT VDW BOUNDARY MISC KINETIC TOTAL TEMP POTENTIAL TOTAL3 TEMPAVG PRESSURE GPRESSURE VOLUME PRESSAVG GPRESSAVG
ENERGY: 900000 0.0000 0.0000 0.0000 0.0000 -11604.6209 1523.0371 0.0000 0.0000 1608.6707 -8472.9131 272.0161 -10081.5838 -8470.5492 272.0161 -599.1332 -524.5726 30500.8028 -599.1332 -524.5726
ENERGY: 1100000 0.0000 0.0000 0.0000 0.0000 -11119.1174 1377.1874 0.0000 0.0000 1816.4617 -7925.4683 307.1523 -9741.9300 -7922.0810 300.7462 -408.1349 -379.7345 30297.6461 4.1325 4.0646
ENERGY: 1300000 0.0000 0.0000 0.0000 0.0000 -11109.8121 1378.7854 0.0000 0.0000 1740.1054 -7990.9212 294.2409 -9731.0266 -7988.0597 300.3157 -657.3344 -612.0780 30643.9226 2.7326 2.6703
ENERGY: 1500000 0.0000 0.0000 0.0000 0.0000 -11226.1078 1453.9977 0.0000 0.0000 1816.3335 -7955.7766 307.1306 -9772.1100 -7952.4425 300.8237 -180.7690 -97.0160 30568.5193 2.8477 2.8724
ENERGY: 1700000 0.0000 0.0000 0.0000 0.0000 -11242.4259 1517.5975 0.0000 0.0000 1751.5321 -7973.2962 296.1731 -9724.8284 -7967.9680 300.2086 48.3837 162.4768 31000.2588 4.0242 3.9176
ENERGY: 1900000 0.0000 0.0000 0.0000 0.0000 -11167.5058 1435.8403 0.0000 0.0000 1753.9669 -7977.6986 296.5848 -9731.6655 -7972.9507 299.6492 -155.7504 -86.8583 30709.2818 3.2238 3.3336
TCL: Exiting due to exit command.
