Info: SIMULATION PARAMETERS:
Info: TIMESTEP               2
Info: NUMBER OF STEPS        0
Info: STEPS PER CYCLE        10
Info: PERIODIC CELL BASIS 1  30.7004 0 0
Info: PERIODIC CELL BASIS 2  0 31.3962 0
Info: PERIODIC CELL BASIS 3  0 0 31.3471
Info: PERIODIC CELL CENTER   0 0 0
Info: WRAPPING WATERS AROUND PERIODIC BOUNDARIES ON OUTPUT.
Info: WRAPPING ALL CLUSTERS AROUND PERIODIC BOUNDARIES ON OUTPUT.
Info: FIRST LDB TIMESTEP     50
Info: LAST LDB TIMESTEP     -1
Info: HOM BACKGROUND SCALING 1
Info: PME BACKGROUND SCALING 1
Info: MIN ATOMS PER PATCH    40
Info: EMPTY PATCH LOAD       40 ATOMS
Info: VELOCITY FILE          mobley_210639_equil.vel
Info: CENTER OF MASS MOVING INITIALLY? NO
Info: DIELECTRIC             1
Info: EXCLUDE                SCALED ONE-FOUR
Info: 1-4 ELECTROSTATICS SCALED BY 0.833333
Info: MODIFIED 1-4 VDW PARAMETERS WILL BE USED
Info: DCD FILENAME           mobley_210639_prod.dcd
Info: DCD FREQUENCY          100000
Info: DCD FIRST STEP         100000
Info: DCD FILE WILL CONTAIN UNIT CELL DATA
Info: XST FILENAME           mobley_210639_prod.xst
Info: XST FREQUENCY          100000
Info: NO VELOCITY DCD OUTPUT
Info: NO FORCE DCD OUTPUT
Info: OUTPUT FILENAME        mobley_210639_prod
Info: BINARY OUTPUT FILES WILL BE USED
Info: RESTART FILENAME       mobley_210639_prod.restart
Info: RESTART FREQUENCY      100000
Info: BINARY RESTART FILES WILL BE USED
Info: CUTOFF                 9
Info: PAIRLIST DISTANCE      11
Info: PAIRLIST SHRINK RATE   0.01
Info: PAIRLIST GROW RATE     0.01
Info: PAIRLIST TRIGGER       0.3
Info: PAIRLISTS PER CYCLE    2
Info: PAIRLISTS ENABLED
Info: MARGIN                 2
Info: HYDROGEN GROUP CUTOFF  2.5
Info: PATCH DIMENSION        15.5
Info: ENERGY OUTPUT STEPS    100000
Info: ENERGY EVALUATION STEPS    100000
Info: OUTPUT ENERGY PRECISION 4
Info: CROSSTERM ENERGY INCLUDED IN DIHEDRAL
Info: TIMING OUTPUT STEPS    1000000
Info: PRESSURE OUTPUT STEPS  100000
Info: ALCHEMICAL FEP ON
Info: FEP CURRENT LAMBDA VALUE     1
Info: FEP COMPARISON LAMBDA VALUE  0.95
Info: FEP INTRA-ALCHEMICAL NON-BONDED INTERACTIONS WILL BE RETAINED
Info: FEP INTRA-ALCHEMICAL BONDED INTERACTIONS WILL BE RETAINED
Info: FEP VDW SHIFTING COEFFICIENT 5
Info: FEP ELEC. ACTIVE FOR ANNIHILATED PARTICLES BETWEEN LAMBDA = 0 AND LAMBDA = 0.5
Info: FEP ELEC. ACTIVE FOR EXNIHILATED PARTICLES BETWEEN LAMBDA = 0.5 AND LAMBDA = 1
Info: FEP VDW ACTIVE FOR ANNIHILATED PARTICLES BETWEEN LAMBDA = 0 AND LAMBDA = 1
Info: FEP VDW ACTIVE FOR EXNIHILATED PARTICLES BETWEEN LAMBDA = 0 AND LAMBDA = 1
Info: FEP BOND ACTIVE FOR ANNIHILATED PARTICLES BETWEEN LAMBDA = 1 AND LAMBDA = 1
Info: FEP BOND ACTIVE FOR EXNIHILATED PARTICLES BETWEEN LAMBDA = 0 AND LAMBDA = 0
Info: LANGEVIN DYNAMICS ACTIVE
Info: LANGEVIN TEMPERATURE   300
Info: LANGEVIN USING BBK INTEGRATOR
Info: LANGEVIN DAMPING COEFFICIENT IS 1 INVERSE PS
Info: LANGEVIN DYNAMICS APPLIED TO HYDROGENS
Info: LANGEVIN PISTON PRESSURE CONTROL ACTIVE
Info:        TARGET PRESSURE IS 1.01325 BAR
Info:     OSCILLATION PERIOD IS 50 FS
Info:             DECAY TIME IS 25 FS
Info:     PISTON TEMPERATURE IS 300 K
Info:       PRESSURE CONTROL IS GROUP-BASED
Info:    INITIAL STRAIN RATE IS 0.000662812 0.000662812 0.000662812
Info:       CELL FLUCTUATION IS ISOTROPIC
Info: PARTICLE MESH EWALD (PME) ACTIVE
Info: PME TOLERANCE               1e-06
Info: PME EWALD COEFFICIENT       0.348832
Info: PME INTERPOLATION ORDER     4
Info: PME GRID DIMENSIONS         32 32 32
Info: PME MAXIMUM GRID SPACING    1
Info: PME CALCULATION WILL BE PERFORMED ON GPU
Info: FULL ELECTROSTATIC EVALUATION FREQUENCY      2
Info: USING VERLET I (r-RESPA) MTS SCHEME.
Info: C1 SPLITTING OF LONG RANGE ELECTROSTATICS
Info: PLACING ATOMS IN PATCHES BY HYDROGEN GROUPS
Info: RIGID BONDS TO HYDROGEN : ALL
Info:         ERROR TOLERANCE : 1e-08
Info:          MAX ITERATIONS : 100
Info: RIGID WATER USING SETTLE ALGORITHM
Info: RANDOM NUMBER SEED     1742553267
Info: USE HYDROGEN BONDS?    NO
Info: Using AMBER format force field!
Info: AMBER PARM FILE        mobley_210639.prmtop
Info: COORDINATE PDB         mobley_210639.pdb
Info: Exclusions will be read from PARM file!
Info: SCNB (VDW SCALING)     2
Info: USING ARITHMETIC MEAN TO COMBINE L-J SIGMA PARAMETERS
Info: BINARY COORDINATES     mobley_210639_equil.coor
Info: SUMMARY OF PARAMETERS:
Info: 6 BONDS
Info: 6 ANGLES
Info:   6 HARMONIC
Info:   0 COSINE-BASED
Info: 3 DIHEDRAL
Info: 0 IMPROPER
Info: 0 CROSSTERM
Info: 0 VDW
Info: 21 VDW_PAIRS
Info: 0 NBTHOLE_PAIRS
Info: To read alchdata from file: mobley_210639.pdb
Info: To read alchflag data from column: 5
Info: STRUCTURE SUMMARY:
Info: 2954 ATOMS
Info: 2953 BONDS
Info: 18 ANGLES
Info: 18 DIHEDRALS
Info: 0 IMPROPERS
Info: 0 CROSSTERMS
Info: 2989 EXCLUSIONS
Info: 2950 RIGID BONDS
Info: ALCH: 0 ATOMS TO DISAPPEAR IN FINAL STATE
Info: ALCH: 11 ATOMS TO APPEAR IN FINAL STATE
Info: 5912 DEGREES OF FREEDOM
Info: 985 HYDROGEN GROUPS
Info: 4 ATOMS IN LARGEST HYDROGEN GROUP
Info: 985 MIGRATION GROUPS
Info: 4 ATOMS IN LARGEST MIGRATION GROUP
Info: TOTAL MASS = 17843.7 amu
Info: TOTAL CHARGE = -7.45058e-09 e
Info: MASS DENSITY = 0.980676 g/cm^3
Info: ATOM DENSITY = 0.097767 atoms/A^3
Info: ADDED 0 IMPLICIT EXCLUSIONS
Info: NONBONDED TABLE R-SQUARED SPACING: 0.0625
Info: NONBONDED TABLE SIZE: 705 POINTS
Info: REMOVING COM VELOCITY -0.0105793 -0.0919627 -0.110993
Info: Use 3D box decompostion in PME FFT.
Info: Updated CUDA force table with 4096 elements.
Info: Updated CUDA LJ table with 6 x 6 elements.
Info: Found 14 unique exclusion lists needing 24 bytes
TCL: Running for 1500000 steps
ETITLE: TS BOND ANGLE DIHED IMPRP ELECT VDW BOUNDARY MISC KINETIC TOTAL TEMP POTENTIAL TOTALAVG TEMPAVG PRESSURE GPRESSURE VOLUME PRESSAVG GPRESSAVG
ENERGY: 0 0.4151 6.5754 0.2770 0.0000 -10801.8247 1500.0631 0.0000 0.0000 1761.3178 -7533.1765 299.8428 -9294.4942 -7533.1765 299.8428 471.0494 559.4823 30214.6925 471.0494 559.4823
ENERGY: 300000 1.0195 4.1142 0.5119 0.0000 -10708.4980 1443.6421 0.0000 0.0000 1742.9638 -7516.2464 296.7183 -9259.2102 -7503.4921 298.8663 66.8103 127.5870 30408.6256 205.9231 281.3820
ENERGY: 600000 0.9684 3.5545 0.6243 0.0000 -10681.1854 1363.2276 0.0000 0.0000 1787.6127 -7525.1979 304.3192 -9312.8106 -7497.6096 300.4793 -855.2396 -800.6887 30542.4835 30.1165 92.5525
ENERGY: 900000 1.0569 3.8568 1.3015 0.0000 -10653.7590 1320.6422 0.0000 0.0000 1761.9231 -7564.9785 299.9459 -9326.9016 -7510.2159 300.8191 -943.6889 -849.4438 30142.9008 0.7018 60.5017
ENERGY: 1200000 0.2140 4.0024 0.1340 0.0000 -10730.1007 1443.1224 0.0000 0.0000 1766.3404 -7516.2875 300.6979 -9282.6279 -7503.4356 300.5382 21.8251 134.2721 30330.9882 -63.2942 -2.1371
ENERGY: 1500000 1.2587 4.7940 0.2754 0.0000 -10771.1930 1394.1424 0.0000 0.0000 1748.4284 -7622.2941 297.6486 -9370.7226 -7509.6076 300.0113 -528.2661 -497.1582 30410.0893 -116.9364 -63.7679
TCL: Running FEP window   2: Lambda1 0.95   Lambda2 0.8999999999999999 [dLambda -0.050000000000000044]
TCL: Setting parameter firsttimestep to 0
TCL: Setting parameter alchLambda to 0.95
Info: NONBONDED TABLE R-SQUARED SPACING: 0.0625
Info: NONBONDED TABLE SIZE: 705 POINTS
TCL: Setting parameter alchLambda2 to 0.8999999999999999
Info: NONBONDED TABLE R-SQUARED SPACING: 0.0625
Info: NONBONDED TABLE SIZE: 705 POINTS
TCL: Running for 1500000 steps
ETITLE: TS BOND ANGLE DIHED IMPRP ELECT VDW BOUNDARY MISC KINETIC TOTAL TEMP POTENTIAL TOTALAVG TEMPAVG PRESSURE GPRESSURE VOLUME PRESSAVG GPRESSAVG
ENERGY: 0 1.2587 4.7940 0.2754 0.0000 -10770.7415 1394.0980 0.0000 0.0000 1747.5424 -7622.7730 297.4977 -9370.3154 -7622.7730 297.4977 -598.9244 -507.2363 30410.0893 -598.9244 -507.2363
ENERGY: 300000 0.4040 6.0034 0.2210 0.0000 -10858.7401 1520.7390 0.0000 0.0000 1738.1543 -7593.2184 295.8995 -9331.3727 -7594.9916 297.4138 525.9387 619.1988 30187.9785 43.6818 104.2165
ENERGY: 600000 1.3369 4.0642 0.7564 0.0000 -10828.0233 1576.3148 0.0000 0.0000 1784.2541 -7461.2968 303.7475 -9245.5509 -7540.3295 299.3322 1129.4312 1157.4186 30372.5591 226.5067 293.6808
ENERGY: 900000 1.1920 3.2377 0.9575 0.0000 -10671.4832 1446.7551 0.0000 0.0000 1756.2715 -7463.0694 298.9838 -9219.3409 -7522.2741 299.2365 86.5368 139.6251 30603.2228 98.6047 164.7194
ENERGY: 1200000 0.5388 2.1678 0.0736 0.0000 -10634.1893 1366.4128 0.0000 0.0000 1790.1567 -7474.8396 304.7523 -9264.9963 -7517.9550 300.7888 -529.2413 -431.4247 30403.3605 -10.2092 52.5212
ENERGY: 1500000 1.7726 2.5010 0.1481 0.0000 -10740.2166 1451.1597 0.0000 0.0000 1773.5690 -7511.0660 301.9285 -9284.6350 -7511.4614 300.8653 1.2062 114.8812 30515.1772 -27.8545 45.7474
TCL: Running FEP window   3: Lambda1 0.8999999999999999 Lambda2 0.8499999999999999 [dLambda -0.050000000000000044]
TCL: Setting parameter firsttimestep to 0
TCL: Setting parameter alchLambda to 0.8999999999999999
Info: NONBONDED TABLE R-SQUARED SPACING: 0.0625
Info: NONBONDED TABLE SIZE: 705 POINTS
TCL: Setting parameter alchLambda2 to 0.8499999999999999
Info: NONBONDED TABLE R-SQUARED SPACING: 0.0625
Info: NONBONDED TABLE SIZE: 705 POINTS
TCL: Running for 1500000 steps
ETITLE: TS BOND ANGLE DIHED IMPRP ELECT VDW BOUNDARY MISC KINETIC TOTAL TEMP POTENTIAL TOTALAVG TEMPAVG PRESSURE GPRESSURE VOLUME PRESSAVG GPRESSAVG
ENERGY: 0 1.7726 2.5010 0.1481 0.0000 -10739.3498 1451.5524 0.0000 0.0000 1772.7258 -7510.6498 301.7849 -9283.3756 -7510.6498 301.7849 20.0869 111.3806 30515.1772 20.0869 111.3806
ENERGY: 300000 0.1593 4.4576 0.3876 0.0000 -10651.5195 1381.6759 0.0000 0.0000 1781.6969 -7483.1420 303.3121 -9264.8390 -7504.6074 301.9184 -591.5973 -432.9508 30760.4013 -223.3886 -135.5680
ENERGY: 600000 2.7516 1.8421 1.3805 0.0000 -10707.9067 1409.3356 0.0000 0.0000 1747.9065 -7544.6904 297.5597 -9292.5969 -7522.7767 299.2418 -196.9458 -165.0223 30568.0544 -246.9330 -179.5804
ENERGY: 900000 0.6324 4.5053 1.2323 0.0000 -10704.2645 1384.1844 0.0000 0.0000 1767.3288 -7546.3813 300.8661 -9313.7100 -7540.0235 298.9567 -716.2958 -661.5302 30915.8835 -196.1269 -134.0172
ENERGY: 1200000 1.4757 1.1382 0.8227 0.0000 -10755.6115 1458.8020 0.0000 0.0000 1737.8521 -7555.5209 295.8481 -9293.3729 -7541.6694 298.7568 313.4511 410.9106 29946.3442 -174.0839 -115.3915
ENERGY: 1500000 1.5079 5.2895 0.6632 0.0000 -10694.9304 1373.6149 0.0000 0.0000 1808.8926 -7504.9624 307.9419 -9313.8550 -7537.7348 299.4208 -435.6578 -454.3480 30368.3599 -192.1037 -134.4423
TCL: Running FEP window   4: Lambda1 0.8499999999999999 Lambda2 0.7999999999999998 [dLambda -0.050000000000000044]
TCL: Setting parameter firsttimestep to 0
TCL: Setting parameter alchLambda to 0.8499999999999999
Info: NONBONDED TABLE R-SQUARED SPACING: 0.0625
Info: NONBONDED TABLE SIZE: 705 POINTS
TCL: Setting parameter alchLambda2 to 0.7999999999999998
Info: NONBONDED TABLE R-SQUARED SPACING: 0.0625
Info: NONBONDED TABLE SIZE: 705 POINTS
TCL: Running for 1500000 steps
ETITLE: TS BOND ANGLE DIHED IMPRP ELECT VDW BOUNDARY MISC KINETIC TOTAL TEMP POTENTIAL TOTALAVG TEMPAVG PRESSURE GPRESSURE VOLUME PRESSAVG GPRESSAVG
ENERGY: 0 1.5079 5.2895 0.6632 0.0000 -10694.6080 1374.2764 0.0000 0.0000 1807.9797 -7504.8914 307.7865 -9312.8711 -7504.8914 307.7865 -534.8051 -452.8919 30368.3599 -534.8051 -452.8919
ENERGY: 300000 1.6186 3.0952 0.3100 0.0000 -10652.1155 1383.6860 0.0000 0.0000 1789.1718 -7474.2339 304.5846 -9263.4057 -7480.7822 303.6139 -356.3406 -273.8656 30339.6073 -220.7105 -160.0297
ENERGY: 600000 0.5247 2.6165 0.6032 0.0000 -10681.3885 1410.0524 0.0000 0.0000 1796.9277 -7470.6641 305.9050 -9267.5917 -7480.1627 302.5720 -349.4422 -184.2232 30626.9506 -24.5210 35.4592
ENERGY: 900000 0.3724 2.6643 1.2183 0.0000 -10691.8421 1436.0020 0.0000 0.0000 1830.1327 -7421.4524 311.5577 -9251.5851 -7469.3573 304.0834 11.3142 82.3464 30510.2002 -50.9003 7.0994
ENERGY: 1200000 0.9359 2.6655 3.1337 0.0000 -10805.5097 1475.3324 0.0000 0.0000 1805.8385 -7517.6036 307.4219 -9323.4421 -7481.8734 302.7048 333.0385 414.5370 29922.9841 15.7747 72.2530
ENERGY: 1500000 1.4833 3.8610 0.1918 0.0000 -10666.2868 1410.4541 0.0000 0.0000 1763.6042 -7486.6924 300.2321 -9250.2965 -7485.7834 301.7223 -300.0724 -311.9031 30606.6874 -88.6144 -33.1727
TCL: Running FEP window   5: Lambda1 0.7999999999999998 Lambda2 0.7499999999999998 [dLambda -0.050000000000000044]
TCL: Setting parameter firsttimestep to 0
TCL: Setting parameter alchLambda to 0.7999999999999998
Info: NONBONDED TABLE R-SQUARED SPACING: 0.0625
Info: NONBONDED TABLE SIZE: 705 POINTS
TCL: Setting parameter alchLambda2 to 0.7499999999999998
Info: NONBONDED TABLE R-SQUARED SPACING: 0.0625
Info: NONBONDED TABLE SIZE: 705 POINTS
TCL: Running for 1500000 steps
ETITLE: TS BOND ANGLE DIHED IMPRP ELECT VDW BOUNDARY MISC KINETIC TOTAL TEMP POTENTIAL TOTALAVG TEMPAVG PRESSURE GPRESSURE VOLUME PRESSAVG GPRESSAVG
ENERGY: 0 1.4833 3.8610 0.1918 0.0000 -10665.9980 1410.9194 0.0000 0.0000 1762.7147 -7486.8277 300.0807 -9249.5424 -7486.8277 300.0807 -395.3070 -315.8377 30606.6874 -395.3070 -315.8377
ENERGY: 300000 1.7437 6.3796 1.4751 0.0000 -10691.3528 1439.1079 0.0000 0.0000 1727.3943 -7515.2523 294.0678 -9242.6465 -7492.3770 299.7379 -180.3623 -115.3476 30442.0325 -125.0073 -53.0344
ENERGY: 600000 0.0938 2.3353 0.1201 0.0000 -10645.4526 1389.3080 0.0000 0.0000 1728.0228 -7525.5724 294.1748 -9253.5952 -7500.6361 300.2199 -509.1400 -360.4436 30668.7268 -2.7407 74.9895
ENERGY: 900000 0.1116 5.2860 0.5649 0.0000 -10853.1805 1484.4319 0.0000 0.0000 1722.8837 -7639.9024 293.2999 -9362.7861 -7516.7781 300.3414 204.7694 285.3731 30009.8200 70.1960 144.7759
ENERGY: 1200000 0.1098 3.9749 0.5296 0.0000 -10759.4227 1448.1515 0.0000 0.0000 1786.4624 -7520.1945 304.1234 -9306.6569 -7526.9405 300.4903 -14.7170 82.9608 30432.4113 143.9916 216.7260
ENERGY: 1500000 1.4712 5.1039 1.1018 0.0000 -10737.1165 1454.3991 0.0000 0.0000 1815.7678 -7459.2727 309.1123 -9275.0405 -7514.2083 300.8706 -81.1648 13.0792 31030.1500 129.6042 198.1674
TCL: Running FEP window   6: Lambda1 0.7499999999999998 Lambda2 0.6999999999999997 [dLambda -0.050000000000000044]
TCL: Setting parameter firsttimestep to 0
TCL: Setting parameter alchLambda to 0.7499999999999998
Info: NONBONDED TABLE R-SQUARED SPACING: 0.0625
Info: NONBONDED TABLE SIZE: 705 POINTS
TCL: Setting parameter alchLambda2 to 0.6999999999999997
Info: NONBONDED TABLE R-SQUARED SPACING: 0.0625
Info: NONBONDED TABLE SIZE: 705 POINTS
TCL: Running for 1500000 steps
ETITLE: TS BOND ANGLE DIHED IMPRP ELECT VDW BOUNDARY MISC KINETIC TOTAL TEMP POTENTIAL TOTALAVG TEMPAVG PRESSURE GPRESSURE VOLUME PRESSAVG GPRESSAVG
ENERGY: 0 1.4712 5.1039 1.1018 0.0000 -10736.8264 1454.9508 0.0000 0.0000 1814.8923 -7459.3064 308.9632 -9274.1987 -7459.3064 308.9632 -75.5246 8.7693 31030.1500 -75.5246 8.7693
ENERGY: 300000 0.6482 5.8453 1.1847 0.0000 -10846.7753 1470.9568 0.0000 0.0000 1729.0469 -7639.0934 294.3491 -9368.1403 -7554.4022 299.7286 344.2140 438.2919 29799.8659 19.0176 111.3082
ENERGY: 600000 0.3709 5.8097 0.8111 0.0000 -10720.2509 1398.1274 0.0000 0.0000 1761.2475 -7553.8843 299.8309 -9315.1318 -7535.3977 298.7915 -563.8323 -481.7072 30648.1744 -215.8430 -119.6118
ENERGY: 900000 0.1339 5.6257 0.8759 0.0000 -10706.7529 1408.5751 0.0000 0.0000 1746.3223 -7545.2200 297.2900 -9291.5423 -7528.6527 300.0354 -158.2944 -94.3867 30065.3241 -54.1183 38.3817
ENERGY: 1200000 1.5743 7.4968 0.3448 0.0000 -10789.8295 1519.0884 0.0000 0.0000 1756.4077 -7504.9175 299.0070 -9261.3252 -7533.4729 298.2946 697.7959 752.6864 30541.9013 44.5323 128.1085
ENERGY: 1500000 0.1974 6.6249 0.3470 0.0000 -10648.6876 1402.9819 0.0000 0.0000 1733.6839 -7504.8525 295.1385 -9238.5364 -7525.0368 298.6881 -578.9685 -459.0560 30880.9167 47.2994 125.0855
TCL: Running FEP window   7: Lambda1 0.6999999999999997 Lambda2 0.6499999999999997 [dLambda -0.050000000000000044]
TCL: Setting parameter firsttimestep to 0
TCL: Setting parameter alchLambda to 0.6999999999999997
Info: NONBONDED TABLE R-SQUARED SPACING: 0.0625
Info: NONBONDED TABLE SIZE: 705 POINTS
TCL: Setting parameter alchLambda2 to 0.6499999999999997
Info: NONBONDED TABLE R-SQUARED SPACING: 0.0625
Info: NONBONDED TABLE SIZE: 705 POINTS
TCL: Running for 1500000 steps
ETITLE: TS BOND ANGLE DIHED IMPRP ELECT VDW BOUNDARY MISC KINETIC TOTAL TEMP POTENTIAL TOTALAVG TEMPAVG PRESSURE GPRESSURE VOLUME PRESSAVG GPRESSAVG
ENERGY: 0 0.1974 6.6249 0.3470 0.0000 -10648.5234 1403.1932 0.0000 0.0000 1732.7568 -7505.4040 294.9807 -9238.1608 -7505.4040 294.9807 -544.7256 -463.3278 30880.9167 -544.7256 -463.3278
ENERGY: 300000 0.7355 5.4089 1.0926 0.0000 -10748.1900 1454.4177 0.0000 0.0000 1736.4332 -7550.1021 295.6065 -9286.5353 -7542.9569 294.8754 50.0099 138.0480 30389.4714 -233.9176 -151.9070
ENERGY: 600000 0.9758 5.1146 2.0899 0.0000 -10672.3785 1444.6528 0.0000 0.0000 1757.5282 -7462.0171 299.1977 -9219.5454 -7534.7370 296.4959 95.4571 202.1000 30601.2458 -34.2124 40.9640
ENERGY: 900000 0.7667 5.6382 1.6512 0.0000 -10717.9268 1474.8939 0.0000 0.0000 1753.7825 -7481.1942 298.5601 -9234.9768 -7531.4419 297.0791 450.9337 471.9574 30283.0720 -128.4544 -65.0522
ENERGY: 1200000 1.0247 3.8199 1.0457 0.0000 -10722.4070 1481.5419 0.0000 0.0000 1802.6877 -7432.2871 306.8856 -9234.9748 -7514.7852 299.1505 180.8550 211.7256 30848.4112 -126.6700 -58.1423
ENERGY: 1500000 0.8324 4.8404 0.9309 0.0000 -10635.0469 1396.1093 0.0000 0.0000 1764.8289 -7467.5051 300.4406 -9232.3340 -7512.0837 299.6933 -535.2661 -429.0723 30879.2347 -125.1816 -65.5170
TCL: Running FEP window   8: Lambda1 0.6499999999999997 Lambda2 0.5999999999999996 [dLambda -0.050000000000000044]
TCL: Setting parameter firsttimestep to 0
TCL: Setting parameter alchLambda to 0.6499999999999997
Info: NONBONDED TABLE R-SQUARED SPACING: 0.0625
Info: NONBONDED TABLE SIZE: 705 POINTS
TCL: Setting parameter alchLambda2 to 0.5999999999999996
Info: NONBONDED TABLE R-SQUARED SPACING: 0.0625
Info: NONBONDED TABLE SIZE: 705 POINTS
TCL: Running for 1500000 steps
ETITLE: TS BOND ANGLE DIHED IMPRP ELECT VDW BOUNDARY MISC KINETIC TOTAL TEMP POTENTIAL TOTALAVG TEMPAVG PRESSURE GPRESSURE VOLUME PRESSAVG GPRESSAVG
ENERGY: 0 0.8324 4.8404 0.9309 0.0000 -10634.9632 1396.4208 0.0000 0.0000 1763.9171 -7468.0216 300.2853 -9231.9387 -7468.0216 300.2853 -519.1943 -430.9019 30879.2347 -519.1943 -430.9019
ENERGY: 300000 0.4840 5.7912 0.3839 0.0000 -10652.3265 1361.9665 0.0000 0.0000 1804.6136 -7479.0873 307.2134 -9283.7009 -7489.3405 303.0287 -648.8787 -611.5416 30509.1320 -192.7537 -131.6945
ENERGY: 600000 1.1919 8.5994 0.2201 0.0000 -10800.7059 1522.0512 0.0000 0.0000 1804.2977 -7464.3457 307.1596 -9268.6433 -7499.3545 300.6706 590.7719 710.8470 30650.4738 22.4108 95.4360
ENERGY: 900000 0.7441 5.0927 2.4966 0.0000 -10626.0331 1389.9890 0.0000 0.0000 1843.4786 -7384.2320 313.8297 -9227.7106 -7482.6786 302.4300 -301.3705 -257.2133 30587.5640 -58.6014 -0.0411
ENERGY: 1200000 0.8252 9.4357 0.4935 0.0000 -10568.0588 1386.6048 0.0000 0.0000 1760.1719 -7410.5278 299.6478 -9170.6997 -7478.3583 302.4170 -195.7831 -131.2833 30608.3069 -46.4403 13.9652
ENERGY: 1500000 4.4077 2.4416 0.0597 0.0000 -10694.7780 1452.6111 0.0000 0.0000 1743.7282 -7491.5296 296.8484 -9235.2578 -7481.3667 302.7167 182.7960 233.3162 30165.8976 26.9537 86.3130
TCL: Running FEP window   9: Lambda1 0.5999999999999996 Lambda2 0.5499999999999996 [dLambda -0.050000000000000044]
TCL: Setting parameter firsttimestep to 0
TCL: Setting parameter alchLambda to 0.5999999999999996
Info: NONBONDED TABLE R-SQUARED SPACING: 0.0625
Info: NONBONDED TABLE SIZE: 705 POINTS
TCL: Setting parameter alchLambda2 to 0.5499999999999996
Info: NONBONDED TABLE R-SQUARED SPACING: 0.0625
Info: NONBONDED TABLE SIZE: 705 POINTS
TCL: Running for 1500000 steps
ETITLE: TS BOND ANGLE DIHED IMPRP ELECT VDW BOUNDARY MISC KINETIC TOTAL TEMP POTENTIAL TOTALAVG TEMPAVG PRESSURE GPRESSURE VOLUME PRESSAVG GPRESSAVG
ENERGY: 0 4.4077 2.4416 0.0597 0.0000 -10694.7260 1452.8506 0.0000 0.0000 1742.8678 -7492.0986 296.7019 -9234.9663 -7492.0986 296.7019 126.3092 228.0839 30165.8976 126.3092 228.0839
ENERGY: 300000 1.5159 3.4592 0.4072 0.0000 -10845.1289 1479.5880 0.0000 0.0000 1774.7110 -7585.4475 302.1229 -9360.1584 -7518.2688 300.1925 186.3560 258.1079 30119.5020 -60.4369 18.3837
ENERGY: 600000 1.2035 3.5305 1.1361 0.0000 -10908.5593 1485.1843 0.0000 0.0000 1711.1472 -7706.3577 291.3019 -9417.5049 -7508.0071 301.3491 -364.6158 -257.9267 30370.3915 -154.0602 -93.5982
ENERGY: 900000 1.4391 3.6489 0.1828 0.0000 -10798.1436 1454.9403 0.0000 0.0000 1731.1622 -7606.7703 294.7092 -9337.9325 -7493.4357 303.2360 161.3110 186.1098 29968.5636 -26.4337 33.0429
ENERGY: 1200000 0.6332 2.7967 0.7853 0.0000 -10783.1031 1500.2791 0.0000 0.0000 1816.2880 -7462.3209 309.2008 -9278.6089 -7490.1626 304.5899 670.2912 738.0237 30150.7221 -2.8693 61.3704
ENERGY: 1500000 0.5183 3.0247 0.2283 0.0000 -10705.2808 1411.0497 0.0000 0.0000 1798.7490 -7491.7108 306.2151 -9290.4598 -7491.1780 304.0243 -318.1213 -194.7941 30586.9806 -31.9642 33.9547
TCL: Running FEP window  10: Lambda1 0.5499999999999996 Lambda2 0.4999999999999996 [dLambda -0.04999999999999999]
TCL: Setting parameter firsttimestep to 0
TCL: Setting parameter alchLambda to 0.5499999999999996
Info: NONBONDED TABLE R-SQUARED SPACING: 0.0625
Info: NONBONDED TABLE SIZE: 705 POINTS
TCL: Setting parameter alchLambda2 to 0.4999999999999996
Info: NONBONDED TABLE R-SQUARED SPACING: 0.0625
Info: NONBONDED TABLE SIZE: 705 POINTS
TCL: Running for 1500000 steps
ETITLE: TS BOND ANGLE DIHED IMPRP ELECT VDW BOUNDARY MISC KINETIC TOTAL TEMP POTENTIAL TOTALAVG TEMPAVG PRESSURE GPRESSURE VOLUME PRESSAVG GPRESSAVG
ENERGY: 0 0.5183 3.0247 0.2283 0.0000 -10705.0746 1410.5010 0.0000 0.0000 1797.8691 -7492.9332 306.0652 -9290.8023 -7492.9332 306.0652 -293.4464 -206.6643 30586.9806 -293.4464 -206.6643
ENERGY: 300000 0.4579 2.9790 0.2536 0.0000 -10806.6860 1473.6089 0.0000 0.0000 1761.2380 -7568.1486 299.8293 -9329.3866 -7552.0863 301.0256 47.2613 113.1481 30388.0895 -175.0755 -105.4430
ENERGY: 600000 1.3820 5.5092 1.3798 0.0000 -10871.6481 1498.6155 0.0000 0.0000 1733.5554 -7631.2062 295.1166 -9364.7617 -7555.3752 299.2744 95.3622 120.1311 30660.5900 -22.5468 43.8810
ENERGY: 900000 0.4190 6.9217 0.6999 0.0000 -10674.8399 1482.6699 0.0000 0.0000 1791.0382 -7393.0912 304.9024 -9184.1295 -7501.9615 300.9359 730.4307 785.7468 30171.3996 62.3196 133.3496
ENERGY: 1200000 0.1836 3.4388 0.8534 0.0000 -10776.7269 1468.5899 0.0000 0.0000 1769.7882 -7533.8731 301.2848 -9303.6613 -7508.0473 300.3479 252.5839 388.1738 29938.9826 47.2683 113.4882
ENERGY: 1500000 2.1923 6.1551 0.3171 0.0000 -10704.1022 1453.3230 0.0000 0.0000 1798.0519 -7444.0629 306.0964 -9242.1148 -7499.8846 300.6659 36.0911 105.7308 30451.2689 31.3211 98.9839
TCL: Running FEP window  11: Lambda1 0.4999999999999996 Lambda2 0.4499999999999996 [dLambda -0.04999999999999999]
TCL: Setting parameter firsttimestep to 0
TCL: Setting parameter alchLambda to 0.4999999999999996
Info: NONBONDED TABLE R-SQUARED SPACING: 0.0625
Info: NONBONDED TABLE SIZE: 705 POINTS
TCL: Setting parameter alchLambda2 to 0.4499999999999996
Info: NONBONDED TABLE R-SQUARED SPACING: 0.0625
Info: NONBONDED TABLE SIZE: 705 POINTS
TCL: Running for 1500000 steps
ETITLE: TS BOND ANGLE DIHED IMPRP ELECT VDW BOUNDARY MISC KINETIC TOTAL TEMP POTENTIAL TOTALAVG TEMPAVG PRESSURE GPRESSURE VOLUME PRESSAVG GPRESSAVG
ENERGY: 0 2.1923 6.1551 0.3171 0.0000 -10703.9115 1453.7075 0.0000 0.0000 1797.1825 -7444.3570 305.9484 -9241.5396 -7444.3570 305.9484 5.7837 102.9855 30451.2689 5.7837 102.9855
ENERGY: 300000 0.1146 2.5077 0.6903 0.0000 -10685.1477 1405.9935 0.0000 0.0000 1801.1956 -7474.6459 306.6315 -9275.8415 -7498.2808 299.1179 -88.4554 -51.5211 30305.0349 -108.6781 -50.0787
ENERGY: 600000 1.3980 7.7748 0.9992 0.0000 -10846.2331 1509.0396 0.0000 0.0000 1840.3692 -7486.6523 313.3004 -9327.0215 -7497.5583 300.2297 489.9852 517.0634 30055.0588 -129.3930 -87.1475
ENERGY: 900000 0.9647 3.5502 1.0707 0.0000 -10713.9112 1433.9013 0.0000 0.0000 1759.6097 -7514.8148 299.5521 -9274.4245 -7492.5793 300.4716 -256.4921 -193.6187 30609.9385 -156.3813 -111.1503
ENERGY: 1200000 0.6345 3.0722 1.2113 0.0000 -10664.1537 1381.6412 0.0000 0.0000 1764.0929 -7513.5016 300.3153 -9277.5946 -7496.3219 299.7343 -553.4880 -497.8563 30440.7086 -59.7898 -11.1058
ENERGY: 1500000 0.6452 6.2272 1.7182 0.0000 -10694.3697 1424.0576 0.0000 0.0000 1773.9491 -7487.7724 301.9932 -9261.7215 -7493.8926 299.8749 -302.1351 -338.9117 31117.3063 -141.6512 -96.9839
TCL: Running FEP window  12: Lambda1 0.4499999999999996 Lambda2 0.39999999999999963 [dLambda -0.04999999999999999]
TCL: Setting parameter firsttimestep to 0
TCL: Setting parameter alchLambda to 0.4499999999999996
Info: NONBONDED TABLE R-SQUARED SPACING: 0.0625
Info: NONBONDED TABLE SIZE: 705 POINTS
TCL: Setting parameter alchLambda2 to 0.39999999999999963
Info: NONBONDED TABLE R-SQUARED SPACING: 0.0625
Info: NONBONDED TABLE SIZE: 705 POINTS
TCL: Running for 1500000 steps
ETITLE: TS BOND ANGLE DIHED IMPRP ELECT VDW BOUNDARY MISC KINETIC TOTAL TEMP POTENTIAL TOTALAVG TEMPAVG PRESSURE GPRESSURE VOLUME PRESSAVG GPRESSAVG
ENERGY: 0 0.6452 6.2272 1.7182 0.0000 -10694.3681 1424.3210 0.0000 0.0000 1773.0415 -7488.4149 301.8387 -9261.4564 -7488.4149 301.8387 -418.7501 -340.3707 31117.3063 -418.7501 -340.3707
ENERGY: 300000 0.6962 3.1029 0.3463 0.0000 -10812.7470 1400.4040 0.0000 0.0000 1766.4606 -7641.7369 300.7183 -9408.1975 -7544.6332 299.8321 -661.8182 -564.9414 30076.7949 -555.4406 -485.5362
ENERGY: 600000 0.3747 4.2725 2.6399 0.0000 -10737.2108 1501.5999 0.0000 0.0000 1721.5563 -7506.7677 293.0739 -9228.3239 -7523.1863 300.4425 454.9145 504.2341 30691.9086 -506.8253 -440.5279
ENERGY: 900000 1.2589 3.8953 0.2703 0.0000 -10680.8291 1443.1146 0.0000 0.0000 1753.5899 -7478.7001 298.5273 -9232.2900 -7506.1092 301.8562 301.2206 324.4912 30025.3682 -322.2981 -272.4942
ENERGY: 1200000 0.1695 5.5653 1.2023 0.0000 -10613.2625 1440.4397 0.0000 0.0000 1835.4240 -7330.4617 312.4585 -9165.8857 -7490.9971 302.5215 62.2377 179.0304 30634.5003 -260.3440 -205.2704
ENERGY: 1500000 0.3804 3.7556 0.2080 0.0000 -10823.7362 1515.5256 0.0000 0.0000 1748.3257 -7555.5408 297.6311 -9303.8665 -7504.6612 301.8273 671.5967 690.7631 30104.2293 -227.0150 -175.7288
TCL: Running FEP window  13: Lambda1 0.39999999999999963 Lambda2 0.34999999999999964 [dLambda -0.04999999999999999]
TCL: Setting parameter firsttimestep to 0
TCL: Setting parameter alchLambda to 0.39999999999999963
Info: NONBONDED TABLE R-SQUARED SPACING: 0.0625
Info: NONBONDED TABLE SIZE: 705 POINTS
TCL: Setting parameter alchLambda2 to 0.34999999999999964
Info: NONBONDED TABLE R-SQUARED SPACING: 0.0625
Info: NONBONDED TABLE SIZE: 705 POINTS
TCL: Running for 1500000 steps
ETITLE: TS BOND ANGLE DIHED IMPRP ELECT VDW BOUNDARY MISC KINETIC TOTAL TEMP POTENTIAL TOTALAVG TEMPAVG PRESSURE GPRESSURE VOLUME PRESSAVG GPRESSAVG
ENERGY: 0 0.3804 3.7556 0.2080 0.0000 -10823.7373 1515.5553 0.0000 0.0000 1747.4439 -7556.3940 297.4810 -9303.8379 -7556.3940 297.4810 615.4371 686.3002 30104.2293 615.4371 686.3002
ENERGY: 300000 1.5387 6.1849 1.7517 0.0000 -10657.1351 1387.4544 0.0000 0.0000 1785.8434 -7474.3620 304.0180 -9260.2054 -7512.1119 298.8448 -501.9003 -480.3259 30794.5213 55.9506 99.0829
ENERGY: 600000 0.3709 4.9560 0.4455 0.0000 -10673.2480 1410.3947 0.0000 0.0000 1746.7868 -7510.2941 297.3691 -9257.0809 -7503.3339 301.5097 -384.1936 -361.4955 30699.8677 -159.2960 -122.0656
ENERGY: 900000 1.2273 5.2931 0.9908 0.0000 -10823.3665 1562.7445 0.0000 0.0000 1775.6807 -7477.4301 302.2879 -9253.1108 -7512.0858 300.8911 1010.0489 1034.7246 30412.1022 -42.9143 4.0670
ENERGY: 1200000 0.2829 5.4394 1.4382 0.0000 -10740.6595 1480.6269 0.0000 0.0000 1764.8303 -7488.0417 300.4408 -9252.8721 -7511.5826 301.2694 27.3096 146.9257 30861.6165 -43.1356 2.4581
ENERGY: 1500000 0.5625 5.2836 0.8480 0.0000 -10669.0426 1360.4180 0.0000 0.0000 1751.4952 -7550.4353 298.1707 -9301.9305 -7515.5941 300.8634 -932.4314 -899.5416 30689.7314 -104.2733 -59.5207
TCL: Running FEP window  14: Lambda1 0.34999999999999964 Lambda2 0.29999999999999966 [dLambda -0.04999999999999999]
TCL: Setting parameter firsttimestep to 0
TCL: Setting parameter alchLambda to 0.34999999999999964
Info: NONBONDED TABLE R-SQUARED SPACING: 0.0625
Info: NONBONDED TABLE SIZE: 705 POINTS
TCL: Setting parameter alchLambda2 to 0.29999999999999966
Info: NONBONDED TABLE R-SQUARED SPACING: 0.0625
Info: NONBONDED TABLE SIZE: 705 POINTS
TCL: Running for 1500000 steps
ETITLE: TS BOND ANGLE DIHED IMPRP ELECT VDW BOUNDARY MISC KINETIC TOTAL TEMP POTENTIAL TOTALAVG TEMPAVG PRESSURE GPRESSURE VOLUME PRESSAVG GPRESSAVG
ENERGY: 0 0.5625 5.2836 0.8480 0.0000 -10669.0418 1360.7774 0.0000 0.0000 1750.6121 -7550.9582 298.0203 -9301.5703 -7550.9582 298.0203 -991.0030 -900.0274 30689.7314 -991.0030 -900.0274
ENERGY: 300000 2.3318 6.0407 0.8323 0.0000 -10673.3321 1433.0036 0.0000 0.0000 1763.2985 -7467.8252 300.1800 -9231.1236 -7530.1727 300.0664 68.5592 133.6648 30401.0933 -47.4458 12.0507
ENERGY: 600000 1.7724 4.4307 0.2619 0.0000 -10750.4314 1472.9219 0.0000 0.0000 1744.3091 -7526.7354 296.9473 -9271.0445 -7515.5431 300.0815 195.4858 194.6388 30729.4564 -201.1368 -152.4921
ENERGY: 900000 0.6683 4.2085 0.2402 0.0000 -10512.2018 1333.5321 0.0000 0.0000 1772.9903 -7400.5624 301.8299 -9173.5527 -7509.4548 300.3029 -660.8263 -599.5867 30733.0024 -137.4115 -87.0719
ENERGY: 1200000 0.2067 3.7378 0.7770 0.0000 -10573.5509 1350.6386 0.0000 0.0000 1798.8137 -7419.3771 306.2261 -9218.1908 -7502.2810 300.7843 -784.6223 -749.4526 31160.0049 -149.8750 -93.1429
ENERGY: 1500000 0.1980 6.1343 0.3606 0.0000 -10645.7984 1395.0169 0.0000 0.0000 1723.6093 -7520.4793 293.4234 -9244.0886 -7516.9634 299.3812 -374.8639 -292.6750 30397.0551 -104.2641 -42.3968
TCL: Running FEP window  15: Lambda1 0.29999999999999966 Lambda2 0.24999999999999967 [dLambda -0.04999999999999999]
TCL: Setting parameter firsttimestep to 0
TCL: Setting parameter alchLambda to 0.29999999999999966
Info: NONBONDED TABLE R-SQUARED SPACING: 0.0625
Info: NONBONDED TABLE SIZE: 705 POINTS
TCL: Setting parameter alchLambda2 to 0.24999999999999967
Info: NONBONDED TABLE R-SQUARED SPACING: 0.0625
Info: NONBONDED TABLE SIZE: 705 POINTS
TCL: Running for 1500000 steps
ETITLE: TS BOND ANGLE DIHED IMPRP ELECT VDW BOUNDARY MISC KINETIC TOTAL TEMP POTENTIAL TOTALAVG TEMPAVG PRESSURE GPRESSURE VOLUME PRESSAVG GPRESSAVG
ENERGY: 0 0.1980 6.1343 0.3606 0.0000 -10645.7995 1395.3572 0.0000 0.0000 1722.7188 -7521.0306 293.2718 -9243.7494 -7521.0306 293.2718 -380.2762 -293.3986 30397.0551 -380.2762 -293.3986
ENERGY: 300000 1.9817 4.6296 0.7152 0.0000 -10784.1998 1477.4487 0.0000 0.0000 1795.5087 -7503.9158 305.6634 -9299.4245 -7519.2087 298.0912 265.9076 363.7997 29999.1125 -320.9586 -258.3659
ENERGY: 600000 1.2732 2.6760 0.0694 0.0000 -10748.3215 1477.5902 0.0000 0.0000 1761.4270 -7505.2857 299.8614 -9266.7127 -7503.7398 301.5191 229.3781 254.0786 30394.9319 -303.7480 -256.4139
ENERGY: 900000 0.4705 6.4499 0.0910 0.0000 -10589.6007 1331.6004 0.0000 0.0000 1726.5183 -7524.4705 293.9187 -9250.9888 -7506.8375 300.6415 -684.4102 -559.5565 30248.6360 -347.7949 -290.2983
ENERGY: 1200000 3.6026 3.1623 0.9271 0.0000 -10849.0906 1498.5695 0.0000 0.0000 1713.0859 -7629.7432 291.6320 -9342.8291 -7519.0646 300.2241 96.6837 153.6287 30477.1862 -277.7503 -218.4895
ENERGY: 1500000 2.1515 4.1880 1.2479 0.0000 -10884.2698 1501.0762 0.0000 0.0000 1778.3368 -7597.2694 302.7401 -9375.6062 -7525.0169 299.9395 211.2617 320.6630 30124.6606 -264.8979 -202.0058
TCL: Running FEP window  16: Lambda1 0.24999999999999967 Lambda2 0.19999999999999968 [dLambda -0.04999999999999999]
TCL: Setting parameter firsttimestep to 0
TCL: Setting parameter alchLambda to 0.24999999999999967
Info: NONBONDED TABLE R-SQUARED SPACING: 0.0625
Info: NONBONDED TABLE SIZE: 705 POINTS
TCL: Setting parameter alchLambda2 to 0.19999999999999968
Info: NONBONDED TABLE R-SQUARED SPACING: 0.0625
Info: NONBONDED TABLE SIZE: 705 POINTS
TCL: Running for 1500000 steps
ETITLE: TS BOND ANGLE DIHED IMPRP ELECT VDW BOUNDARY MISC KINETIC TOTAL TEMP POTENTIAL TOTALAVG TEMPAVG PRESSURE GPRESSURE VOLUME PRESSAVG GPRESSAVG
ENERGY: 0 2.1515 4.1880 1.2479 0.0000 -10884.2694 1501.1458 0.0000 0.0000 1777.4495 -7598.0868 302.5891 -9375.5363 -7598.0868 302.5891 242.5158 318.7832 30124.6606 242.5158 318.7832
ENERGY: 300000 0.0743 1.7919 0.0693 0.0000 -10869.6095 1459.8254 0.0000 0.0000 1759.6912 -7648.1575 299.5659 -9407.8487 -7565.6226 302.6019 -133.8609 -69.4667 29939.0631 89.2537 171.4282
ENERGY: 600000 1.0190 2.2467 0.8147 0.0000 -10690.2350 1447.9785 0.0000 0.0000 1739.2660 -7498.9101 296.0888 -9238.1762 -7536.6620 300.6350 143.2488 229.0247 30227.6661 49.6930 140.0484
ENERGY: 900000 1.6611 3.8475 1.5097 0.0000 -10690.6120 1389.6575 0.0000 0.0000 1736.6255 -7557.3108 295.6393 -9293.9362 -7540.5719 299.0712 -363.7089 -328.9476 30288.4467 -38.7582 32.5756
ENERGY: 1200000 0.6554 2.4329 1.3391 0.0000 -10826.3397 1457.1956 0.0000 0.0000 1729.2391 -7635.4776 294.3818 -9364.7167 -7535.0208 298.8950 -4.2625 72.3295 29977.8858 -23.2440 39.1894
ENERGY: 1500000 0.1025 3.9149 1.0381 0.0000 -10786.2506 1508.4323 0.0000 0.0000 1763.2253 -7509.5376 300.1676 -9272.7628 -7535.5293 298.7497 422.4602 544.8033 30301.8596 -19.4521 45.9479
TCL: Running FEP window  17: Lambda1 0.19999999999999968 Lambda2 0.1499999999999997 [dLambda -0.04999999999999999]
TCL: Setting parameter firsttimestep to 0
TCL: Setting parameter alchLambda to 0.19999999999999968
Info: NONBONDED TABLE R-SQUARED SPACING: 0.0625
Info: NONBONDED TABLE SIZE: 705 POINTS
TCL: Setting parameter alchLambda2 to 0.1499999999999997
Info: NONBONDED TABLE R-SQUARED SPACING: 0.0625
Info: NONBONDED TABLE SIZE: 705 POINTS
TCL: Running for 1500000 steps
ETITLE: TS BOND ANGLE DIHED IMPRP ELECT VDW BOUNDARY MISC KINETIC TOTAL TEMP POTENTIAL TOTALAVG TEMPAVG PRESSURE GPRESSURE VOLUME PRESSAVG GPRESSAVG
ENERGY: 0 0.1025 3.9149 1.0381 0.0000 -10786.2517 1508.1309 0.0000 0.0000 1762.3451 -7510.7203 300.0177 -9273.0654 -7510.7203 300.0177 452.3932 536.8026 30301.8596 452.3932 536.8026
ENERGY: 300000 2.0063 6.4468 0.7082 0.0000 -10852.7266 1532.9289 0.0000 0.0000 1782.6749 -7527.9616 303.4786 -9310.6365 -7539.7969 297.9934 700.6446 786.1276 30071.6801 136.4281 195.2727
ENERGY: 600000 3.0050 7.6089 1.4325 0.0000 -10750.3666 1477.2392 0.0000 0.0000 1762.9007 -7498.1802 300.1123 -9261.0810 -7505.4456 299.3163 216.7269 297.8258 30312.6692 -29.6326 38.3632
ENERGY: 900000 0.1374 2.8498 0.1320 0.0000 -10753.1393 1499.7759 0.0000 0.0000 1755.4508 -7494.7935 298.8441 -9250.2442 -7509.8127 298.6796 479.8931 509.8962 30444.9042 18.5553 82.9441
ENERGY: 1200000 1.4349 3.6508 0.3143 0.0000 -10732.1997 1455.6891 0.0000 0.0000 1724.2476 -7546.8631 293.5321 -9271.1107 -7507.0827 298.1945 145.6380 224.0765 30296.5648 68.7364 135.6913
ENERGY: 1500000 0.1149 5.9882 0.8124 0.0000 -10696.8344 1407.4379 0.0000 0.0000 1778.5226 -7503.9584 302.7717 -9282.4810 -7504.0544 299.5227 -384.3252 -305.5182 30565.9928 57.0142 124.0275
TCL: Running FEP window  18: Lambda1 0.1499999999999997 Lambda2 0.09999999999999969 [dLambda -0.05 ]
TCL: Setting parameter firsttimestep to 0
TCL: Setting parameter alchLambda to 0.1499999999999997
Info: NONBONDED TABLE R-SQUARED SPACING: 0.0625
Info: NONBONDED TABLE SIZE: 705 POINTS
TCL: Setting parameter alchLambda2 to 0.09999999999999969
Info: NONBONDED TABLE R-SQUARED SPACING: 0.0625
Info: NONBONDED TABLE SIZE: 705 POINTS
TCL: Running for 1500000 steps
ETITLE: TS BOND ANGLE DIHED IMPRP ELECT VDW BOUNDARY MISC KINETIC TOTAL TEMP POTENTIAL TOTALAVG TEMPAVG PRESSURE GPRESSURE VOLUME PRESSAVG GPRESSAVG
ENERGY: 0 0.1149 5.9883 0.8124 0.0000 -10696.8345 1407.4811 0.0000 0.0000 1777.6589 -7504.7789 302.6247 -9282.4378 -7504.7789 302.6247 -391.0616 -308.8991 30565.9928 -391.0616 -308.8991
ENERGY: 300000 2.0472 3.4390 0.2042 0.0000 -10721.2428 1463.8842 0.0000 0.0000 1787.9909 -7463.6771 304.3836 -9251.6681 -7507.3717 302.1399 -60.4938 54.1930 30593.2337 324.8874 393.4662
ENERGY: 600000 1.7345 5.9857 0.3703 0.0000 -10759.9917 1418.2188 0.0000 0.0000 1733.2120 -7600.4704 295.0582 -9333.6824 -7511.5170 299.8870 -369.0742 -323.5796 30326.4037 210.3343 278.8042
ENERGY: 900000 0.5169 9.4536 0.4175 0.0000 -10567.9773 1390.0086 0.0000 0.0000 1762.3509 -7405.2298 300.0187 -9167.5807 -7499.0824 300.5492 89.4839 151.4509 30149.9989 128.7095 196.6392
ENERGY: 1200000 0.3838 5.1650 0.9075 0.0000 -10838.8307 1503.3751 0.0000 0.0000 1723.6853 -7605.3140 293.4364 -9328.9993 -7505.9571 300.2566 148.6331 268.8795 30159.1958 138.7642 206.3759
ENERGY: 1500000 2.2739 4.3694 0.2782 0.0000 -10891.8147 1577.5537 0.0000 0.0000 1746.7864 -7560.5532 297.3690 -9307.3396 -7509.7718 299.9550 652.7278 756.5928 30414.4550 206.4791 275.3212
TCL: Running FEP window  19: Lambda1 0.09999999999999969 Lambda2 0.049999999999999684 [dLambda -0.05 ]
TCL: Setting parameter firsttimestep to 0
TCL: Setting parameter alchLambda to 0.09999999999999969
Info: NONBONDED TABLE R-SQUARED SPACING: 0.0625
Info: NONBONDED TABLE SIZE: 705 POINTS
TCL: Setting parameter alchLambda2 to 0.049999999999999684
Info: NONBONDED TABLE R-SQUARED SPACING: 0.0625
Info: NONBONDED TABLE SIZE: 705 POINTS
TCL: Running for 1500000 steps
ETITLE: TS BOND ANGLE DIHED IMPRP ELECT VDW BOUNDARY MISC KINETIC TOTAL TEMP POTENTIAL TOTALAVG TEMPAVG PRESSURE GPRESSURE VOLUME PRESSAVG GPRESSAVG
ENERGY: 0 2.2739 4.3694 0.2782 0.0000 -10891.8134 1577.4455 0.0000 0.0000 1745.9695 -7561.4769 297.2300 -9307.4465 -7561.4769 297.2300 677.3022 754.9453 30414.4550 677.3022 754.9453
ENERGY: 300000 1.1886 3.3771 0.1730 0.0000 -10701.2566 1418.6674 0.0000 0.0000 1798.3490 -7479.5014 306.1469 -9277.8504 -7560.1242 297.8948 -360.9543 -324.8678 30413.0853 75.2826 142.2821
ENERGY: 600000 0.2852 7.2232 0.2348 0.0000 -10674.4831 1374.6226 0.0000 0.0000 1740.2405 -7551.8768 296.2547 -9292.1173 -7531.8085 299.4262 -588.2275 -564.1043 30295.0854 -31.3044 38.0133
ENERGY: 900000 0.3245 5.4461 0.2302 0.0000 -10645.5788 1430.3624 0.0000 0.0000 1798.9056 -7410.3100 306.2417 -9209.2156 -7520.6886 299.5744 -235.9946 -159.5773 31137.2130 49.8244 117.0265
ENERGY: 1200000 0.5758 3.8981 1.0353 0.0000 -10651.9567 1371.9773 0.0000 0.0000 1779.5086 -7494.9616 302.9396 -9274.4702 -7507.4143 301.1413 -576.6870 -519.6487 30317.6711 18.4501 82.7207
ENERGY: 1500000 0.2137 5.1696 0.5562 0.0000 -10702.3516 1408.3634 0.0000 0.0000 1775.9890 -7512.0596 302.3404 -9288.0487 -7510.6826 300.4019 -127.9844 -116.6477 30165.6805 -26.2783 36.5256
TCL: Running FEP window  20: Lambda1 0.049999999999999684 Lambda2 0.0    [dLambda -0.049999999999999684]
TCL: Setting parameter firsttimestep to 0
TCL: Setting parameter alchLambda to 0.049999999999999684
Info: NONBONDED TABLE R-SQUARED SPACING: 0.0625
Info: NONBONDED TABLE SIZE: 705 POINTS
TCL: Setting parameter alchLambda2 to 0.0
Info: NONBONDED TABLE R-SQUARED SPACING: 0.0625
Info: NONBONDED TABLE SIZE: 705 POINTS
TCL: Running for 1500000 steps
ETITLE: TS BOND ANGLE DIHED IMPRP ELECT VDW BOUNDARY MISC KINETIC TOTAL TEMP POTENTIAL TOTALAVG TEMPAVG PRESSURE GPRESSURE VOLUME PRESSAVG GPRESSAVG
ENERGY: 0 0.2137 5.1696 0.5562 0.0000 -10702.3519 1406.2107 0.0000 0.0000 1775.1580 -7515.0438 302.1990 -9290.2018 -7515.0438 302.1990 -217.4169 -129.3698 30165.6805 -217.4169 -129.3698
ENERGY: 300000 0.6664 3.8713 0.2605 0.0000 -10564.0524 1417.0410 0.0000 0.0000 1846.8631 -7295.3501 314.4059 -9142.2132 -7448.9722 305.0859 5.1718 97.2036 30570.5125 -136.7230 -44.8174
ENERGY: 600000 2.4029 4.6828 1.9465 0.0000 -10678.4326 1427.4746 0.0000 0.0000 1721.5691 -7520.3566 293.0761 -9241.9257 -7475.4965 302.2594 -261.0273 -177.3664 30574.8338 -114.7975 -35.0013
ENERGY: 900000 2.3235 2.9244 0.6062 0.0000 -10694.7692 1419.7997 0.0000 0.0000 1755.7980 -7513.3174 298.9032 -9269.1153 -7475.3988 300.6782 -327.0839 -243.6534 30376.3762 -88.7245 -17.3139
ENERGY: 1200000 4.2941 1.9753 2.1564 0.0000 -10661.0590 1410.1118 0.0000 0.0000 1743.2539 -7499.2675 296.7677 -9242.5214 -7479.0622 299.3316 -328.0791 -251.7768 30597.8530 -100.4406 -30.1202
ENERGY: 1500000 0.0744 5.6671 0.4839 0.0000 -10572.8331 1390.9558 0.0000 0.0000 1763.2273 -7412.4247 300.1679 -9175.6520 -7490.6150 299.7565 -251.3511 -248.4755 30800.7365 -85.4812 -18.8922
TCL: Exiting due to exit command.
