Info: SIMULATION PARAMETERS:
Info: TIMESTEP               2
Info: NUMBER OF STEPS        0
Info: STEPS PER CYCLE        10
Info: PERIODIC CELL BASIS 1  31.7052 0 0
Info: PERIODIC CELL BASIS 2  0 30.0277 0
Info: PERIODIC CELL BASIS 3  0 0 31.876
Info: PERIODIC CELL CENTER   0 0 0
Info: WRAPPING WATERS AROUND PERIODIC BOUNDARIES ON OUTPUT.
Info: WRAPPING ALL CLUSTERS AROUND PERIODIC BOUNDARIES ON OUTPUT.
Info: FIRST LDB TIMESTEP     50
Info: LAST LDB TIMESTEP     -1
Info: HOM BACKGROUND SCALING 1
Info: PME BACKGROUND SCALING 1
Info: MIN ATOMS PER PATCH    40
Info: EMPTY PATCH LOAD       40 ATOMS
Info: VELOCITY FILE          mobley_852937_equil.vel
Info: CENTER OF MASS MOVING INITIALLY? NO
Info: DIELECTRIC             1
Info: EXCLUDE                SCALED ONE-FOUR
Info: 1-4 ELECTROSTATICS SCALED BY 0.833333
Info: MODIFIED 1-4 VDW PARAMETERS WILL BE USED
Info: DCD FILENAME           mobley_852937_prod.dcd
Info: DCD FREQUENCY          100000
Info: DCD FIRST STEP         100000
Info: DCD FILE WILL CONTAIN UNIT CELL DATA
Info: XST FILENAME           mobley_852937_prod.xst
Info: XST FREQUENCY          100000
Info: NO VELOCITY DCD OUTPUT
Info: NO FORCE DCD OUTPUT
Info: OUTPUT FILENAME        mobley_852937_prod
Info: BINARY OUTPUT FILES WILL BE USED
Info: RESTART FILENAME       mobley_852937_prod.restart
Info: RESTART FREQUENCY      100000
Info: BINARY RESTART FILES WILL BE USED
Info: CUTOFF                 9
Info: PAIRLIST DISTANCE      11
Info: PAIRLIST SHRINK RATE   0.01
Info: PAIRLIST GROW RATE     0.01
Info: PAIRLIST TRIGGER       0.3
Info: PAIRLISTS PER CYCLE    2
Info: PAIRLISTS ENABLED
Info: MARGIN                 2
Info: HYDROGEN GROUP CUTOFF  2.5
Info: PATCH DIMENSION        15.5
Info: ENERGY OUTPUT STEPS    100000
Info: ENERGY EVALUATION STEPS    100000
Info: OUTPUT ENERGY PRECISION 4
Info: CROSSTERM ENERGY INCLUDED IN DIHEDRAL
Info: TIMING OUTPUT STEPS    1000000
Info: PRESSURE OUTPUT STEPS  100000
Info: ALCHEMICAL FEP ON
Info: FEP CURRENT LAMBDA VALUE     1
Info: FEP COMPARISON LAMBDA VALUE  0.95
Info: FEP INTRA-ALCHEMICAL NON-BONDED INTERACTIONS WILL BE RETAINED
Info: FEP INTRA-ALCHEMICAL BONDED INTERACTIONS WILL BE RETAINED
Info: FEP VDW SHIFTING COEFFICIENT 5
Info: FEP ELEC. ACTIVE FOR ANNIHILATED PARTICLES BETWEEN LAMBDA = 0 AND LAMBDA = 0.5
Info: FEP ELEC. ACTIVE FOR EXNIHILATED PARTICLES BETWEEN LAMBDA = 0.5 AND LAMBDA = 1
Info: FEP VDW ACTIVE FOR ANNIHILATED PARTICLES BETWEEN LAMBDA = 0 AND LAMBDA = 1
Info: FEP VDW ACTIVE FOR EXNIHILATED PARTICLES BETWEEN LAMBDA = 0 AND LAMBDA = 1
Info: FEP BOND ACTIVE FOR ANNIHILATED PARTICLES BETWEEN LAMBDA = 1 AND LAMBDA = 1
Info: FEP BOND ACTIVE FOR EXNIHILATED PARTICLES BETWEEN LAMBDA = 0 AND LAMBDA = 0
Info: LANGEVIN DYNAMICS ACTIVE
Info: LANGEVIN TEMPERATURE   300
Info: LANGEVIN USING BBK INTEGRATOR
Info: LANGEVIN DAMPING COEFFICIENT IS 1 INVERSE PS
Info: LANGEVIN DYNAMICS APPLIED TO HYDROGENS
Info: LANGEVIN PISTON PRESSURE CONTROL ACTIVE
Info:        TARGET PRESSURE IS 1.01325 BAR
Info:     OSCILLATION PERIOD IS 50 FS
Info:             DECAY TIME IS 25 FS
Info:     PISTON TEMPERATURE IS 300 K
Info:       PRESSURE CONTROL IS GROUP-BASED
Info:    INITIAL STRAIN RATE IS -6.00364e-05 -6.00364e-05 -6.00364e-05
Info:       CELL FLUCTUATION IS ISOTROPIC
Info: PARTICLE MESH EWALD (PME) ACTIVE
Info: PME TOLERANCE               1e-06
Info: PME EWALD COEFFICIENT       0.348832
Info: PME INTERPOLATION ORDER     4
Info: PME GRID DIMENSIONS         32 32 32
Info: PME MAXIMUM GRID SPACING    1
Info: PME CALCULATION WILL BE PERFORMED ON GPU
Info: FULL ELECTROSTATIC EVALUATION FREQUENCY      2
Info: USING VERLET I (r-RESPA) MTS SCHEME.
Info: C1 SPLITTING OF LONG RANGE ELECTROSTATICS
Info: PLACING ATOMS IN PATCHES BY HYDROGEN GROUPS
Info: RIGID BONDS TO HYDROGEN : ALL
Info:         ERROR TOLERANCE : 1e-08
Info:          MAX ITERATIONS : 100
Info: RIGID WATER USING SETTLE ALGORITHM
Info: RANDOM NUMBER SEED     1742599878
Info: USE HYDROGEN BONDS?    NO
Info: Using AMBER format force field!
Info: AMBER PARM FILE        mobley_852937.prmtop
Info: COORDINATE PDB         mobley_852937.pdb
Info: Exclusions will be read from PARM file!
Info: SCNB (VDW SCALING)     2
Info: USING ARITHMETIC MEAN TO COMBINE L-J SIGMA PARAMETERS
Info: BINARY COORDINATES     mobley_852937_equil.coor
Info: SUMMARY OF PARAMETERS:
Info: 7 BONDS
Info: 5 ANGLES
Info:   5 HARMONIC
Info:   0 COSINE-BASED
Info: 3 DIHEDRAL
Info: 0 IMPROPER
Info: 0 CROSSTERM
Info: 0 VDW
Info: 28 VDW_PAIRS
Info: 0 NBTHOLE_PAIRS
Info: To read alchdata from file: mobley_852937.pdb
Info: To read alchflag data from column: 5
Info: STRUCTURE SUMMARY:
Info: 2935 ATOMS
Info: 2935 BONDS
Info: 19 ANGLES
Info: 31 DIHEDRALS
Info: 0 IMPROPERS
Info: 0 CROSSTERMS
Info: 2977 EXCLUSIONS
Info: 2927 RIGID BONDS
Info: ALCH: 0 ATOMS TO DISAPPEAR IN FINAL STATE
Info: ALCH: 13 ATOMS TO APPEAR IN FINAL STATE
Info: 5878 DEGREES OF FREEDOM
Info: 982 HYDROGEN GROUPS
Info: 3 ATOMS IN LARGEST HYDROGEN GROUP
Info: 982 MIGRATION GROUPS
Info: 3 ATOMS IN LARGEST MIGRATION GROUP
Info: TOTAL MASS = 17659.7 amu
Info: TOTAL CHARGE = 0.000199996 e
Info: MASS DENSITY = 0.966332 g/cm^3
Info: ATOM DENSITY = 0.0967147 atoms/A^3
Info: ADDED 0 IMPLICIT EXCLUSIONS
Info: NONBONDED TABLE R-SQUARED SPACING: 0.0625
Info: NONBONDED TABLE SIZE: 705 POINTS
Info: REMOVING COM VELOCITY 0.0263672 -0.115647 0.131543
Info: Use 3D box decompostion in PME FFT.
Info: Updated CUDA force table with 4096 elements.
Info: Updated CUDA LJ table with 7 x 7 elements.
Info: Found 15 unique exclusion lists needing 28 bytes
TCL: Running for 1500000 steps
ETITLE: TS BOND ANGLE DIHED IMPRP ELECT VDW BOUNDARY MISC KINETIC TOTAL TEMP POTENTIAL TOTALAVG TEMPAVG PRESSURE GPRESSURE VOLUME PRESSAVG GPRESSAVG
ENERGY: 0 0.9048 3.1067 3.0678 0.0000 -10692.8584 1439.5652 0.0000 0.0000 1746.8801 -7499.3338 299.1052 -9246.2139 -7499.3338 299.1052 -127.1930 -42.5260 30347.0017 -127.1930 -42.5260
ENERGY: 300000 1.2205 2.5430 1.8986 0.0000 -10557.7017 1360.2301 0.0000 0.0000 1698.7867 -7493.0228 290.8705 -9191.8095 -7468.1718 300.3400 -636.9111 -542.0074 30459.6123 -626.3403 -537.7762
ENERGY: 600000 1.8683 2.0472 7.6895 0.0000 -10671.5227 1442.3707 0.0000 0.0000 1740.5069 -7477.0401 298.0139 -9217.5469 -7474.7258 300.2682 -1.4911 24.2103 30572.6556 -452.4679 -389.3833
ENERGY: 900000 2.8528 2.3426 7.1737 0.0000 -10654.5837 1425.3523 0.0000 0.0000 1773.8739 -7442.9883 303.7271 -9216.8623 -7472.3401 300.2735 -234.5723 -234.1146 30641.6516 -432.2504 -377.6900
ENERGY: 1200000 2.5301 5.1514 3.8361 0.0000 -10609.8444 1395.0266 0.0000 0.0000 1787.9044 -7415.3957 306.1294 -9203.3002 -7472.3562 299.4167 -418.5001 -406.5355 30571.9591 -325.3819 -278.1788
ENERGY: 1500000 2.3634 5.1612 2.2495 0.0000 -10755.4873 1483.7846 0.0000 0.0000 1796.4044 -7465.5241 307.5848 -9261.9285 -7475.2573 299.3319 340.2376 393.2292 30081.6523 -275.6674 -227.7239
TCL: Running FEP window   2: Lambda1 0.95   Lambda2 0.8999999999999999 [dLambda -0.050000000000000044]
TCL: Setting parameter firsttimestep to 0
TCL: Setting parameter alchLambda to 0.95
Info: NONBONDED TABLE R-SQUARED SPACING: 0.0625
Info: NONBONDED TABLE SIZE: 705 POINTS
TCL: Setting parameter alchLambda2 to 0.8999999999999999
Info: NONBONDED TABLE R-SQUARED SPACING: 0.0625
Info: NONBONDED TABLE SIZE: 705 POINTS
TCL: Running for 1500000 steps
ETITLE: TS BOND ANGLE DIHED IMPRP ELECT VDW BOUNDARY MISC KINETIC TOTAL TEMP POTENTIAL TOTALAVG TEMPAVG PRESSURE GPRESSURE VOLUME PRESSAVG GPRESSAVG
ENERGY: 0 2.3634 5.1612 2.2495 0.0000 -10754.0081 1483.7664 0.0000 0.0000 1795.5419 -7464.9256 307.4372 -9260.4675 -7464.9256 307.4372 323.0846 387.5537 30081.6523 323.0846 387.5537
ENERGY: 300000 2.3338 3.1850 2.6842 0.0000 -10729.8150 1478.2073 0.0000 0.0000 1754.4846 -7488.9200 300.4072 -9243.4046 -7506.6508 300.2866 408.0154 540.7870 29720.0454 338.2282 422.9095
ENERGY: 600000 3.4030 4.3491 2.5194 0.0000 -10619.0495 1399.6672 0.0000 0.0000 1768.6935 -7440.4173 302.8401 -9209.1108 -7481.0755 300.6216 -106.6267 -58.2649 29924.4328 106.4714 167.7316
ENERGY: 900000 2.7901 4.7539 3.5678 0.0000 -10636.7657 1430.0280 0.0000 0.0000 1730.5867 -7465.0393 296.3154 -9195.6259 -7478.0330 299.3067 -94.2793 -13.2244 30457.6790 5.6953 68.8394
ENERGY: 1200000 1.5421 2.0854 3.5236 0.0000 -10589.8633 1384.1113 0.0000 0.0000 1720.8982 -7477.7027 294.6565 -9198.6008 -7477.8152 299.6834 -230.8609 -107.4469 29914.8125 0.9844 68.1180
ENERGY: 1500000 3.0486 5.4978 4.6135 0.0000 -10632.9082 1390.3953 0.0000 0.0000 1811.8201 -7417.5330 310.2243 -9229.3531 -7472.1930 300.0935 -24.6063 39.1954 29824.0164 17.1128 84.0349
TCL: Running FEP window   3: Lambda1 0.8999999999999999 Lambda2 0.8499999999999999 [dLambda -0.050000000000000044]
TCL: Setting parameter firsttimestep to 0
TCL: Setting parameter alchLambda to 0.8999999999999999
Info: NONBONDED TABLE R-SQUARED SPACING: 0.0625
Info: NONBONDED TABLE SIZE: 705 POINTS
TCL: Setting parameter alchLambda2 to 0.8499999999999999
Info: NONBONDED TABLE R-SQUARED SPACING: 0.0625
Info: NONBONDED TABLE SIZE: 705 POINTS
TCL: Running for 1500000 steps
ETITLE: TS BOND ANGLE DIHED IMPRP ELECT VDW BOUNDARY MISC KINETIC TOTAL TEMP POTENTIAL TOTALAVG TEMPAVG PRESSURE GPRESSURE VOLUME PRESSAVG GPRESSAVG
ENERGY: 0 3.0486 5.4978 4.6135 0.0000 -10632.0590 1390.6686 0.0000 0.0000 1810.9753 -7417.2551 310.0797 -9228.2305 -7417.2551 310.0797 -41.3315 32.6912 29824.0164 -41.3315 32.6912
ENERGY: 300000 2.1586 8.4639 2.1059 0.0000 -10518.1675 1353.2542 0.0000 0.0000 1718.5942 -7433.5908 294.2620 -9152.1849 -7419.4052 305.8327 -597.1506 -547.5156 30537.9200 -77.9161 -16.9716
ENERGY: 600000 3.4498 1.6043 6.1235 0.0000 -10672.7563 1507.4977 0.0000 0.0000 1784.3429 -7369.7381 305.5196 -9154.0810 -7443.0303 303.9068 868.4630 977.9229 30170.0059 86.5235 164.2556
ENERGY: 900000 5.4406 4.0047 1.4432 0.0000 -10593.0376 1375.6951 0.0000 0.0000 1765.3598 -7441.0943 302.2693 -9206.4541 -7448.3776 302.9286 -630.6578 -570.0264 30701.8775 32.6530 106.3588
ENERGY: 1200000 4.2756 2.9873 2.8633 0.0000 -10628.6321 1398.3666 0.0000 0.0000 1752.8633 -7467.2759 300.1296 -9220.1392 -7451.4202 302.9502 -375.3300 -306.5306 30380.7690 -1.8613 73.6980
ENERGY: 1500000 1.5604 6.3397 2.3550 0.0000 -10628.3604 1396.6014 0.0000 0.0000 1789.3166 -7432.1872 306.3712 -9221.5039 -7450.1021 303.0342 -193.4443 -135.8889 30399.9491 -66.4610 2.4672
TCL: Running FEP window   4: Lambda1 0.8499999999999999 Lambda2 0.7999999999999998 [dLambda -0.050000000000000044]
TCL: Setting parameter firsttimestep to 0
TCL: Setting parameter alchLambda to 0.8499999999999999
Info: NONBONDED TABLE R-SQUARED SPACING: 0.0625
Info: NONBONDED TABLE SIZE: 705 POINTS
TCL: Setting parameter alchLambda2 to 0.7999999999999998
Info: NONBONDED TABLE R-SQUARED SPACING: 0.0625
Info: NONBONDED TABLE SIZE: 705 POINTS
TCL: Running for 1500000 steps
ETITLE: TS BOND ANGLE DIHED IMPRP ELECT VDW BOUNDARY MISC KINETIC TOTAL TEMP POTENTIAL TOTALAVG TEMPAVG PRESSURE GPRESSURE VOLUME PRESSAVG GPRESSAVG
ENERGY: 0 1.5604 6.3397 2.3550 0.0000 -10626.9964 1395.8374 0.0000 0.0000 1788.4402 -7432.4637 306.2212 -9220.9039 -7432.4637 306.2212 -231.3537 -151.4937 30399.9491 -231.3537 -151.4937
ENERGY: 300000 1.6159 2.2985 4.4631 0.0000 -10704.2172 1454.6228 0.0000 0.0000 1750.5601 -7490.6568 299.7353 -9241.2169 -7465.9645 302.7160 -31.0481 62.5101 30338.4501 -187.8841 -118.1379
ENERGY: 600000 1.4932 3.9318 6.3964 0.0000 -10676.6726 1443.0644 0.0000 0.0000 1748.3778 -7473.4090 299.3616 -9221.7868 -7476.8516 300.4182 38.1617 123.5240 30120.9420 -29.4717 43.7206
ENERGY: 900000 3.4433 2.4814 1.5555 0.0000 -10441.7707 1327.2618 0.0000 0.0000 1703.1387 -7403.8900 291.6156 -9107.0287 -7489.2399 298.8022 -779.5689 -673.6303 30641.1120 -5.0997 67.2856
ENERGY: 1200000 2.3592 1.4634 3.2953 0.0000 -10747.3176 1420.8323 0.0000 0.0000 1730.1429 -7589.2245 296.2394 -9319.3674 -7500.9076 298.5146 -183.6750 -191.9440 29955.5795 -57.8504 4.0515
ENERGY: 1500000 3.2428 1.6308 2.2602 0.0000 -10567.1377 1430.6978 0.0000 0.0000 1770.3207 -7358.9855 303.1187 -9129.3062 -7491.3900 298.2195 39.8738 104.7092 30514.5185 -84.3999 -20.5652
TCL: Running FEP window   5: Lambda1 0.7999999999999998 Lambda2 0.7499999999999998 [dLambda -0.050000000000000044]
TCL: Setting parameter firsttimestep to 0
TCL: Setting parameter alchLambda to 0.7999999999999998
Info: NONBONDED TABLE R-SQUARED SPACING: 0.0625
Info: NONBONDED TABLE SIZE: 705 POINTS
TCL: Setting parameter alchLambda2 to 0.7499999999999998
Info: NONBONDED TABLE R-SQUARED SPACING: 0.0625
Info: NONBONDED TABLE SIZE: 705 POINTS
TCL: Running for 1500000 steps
ETITLE: TS BOND ANGLE DIHED IMPRP ELECT VDW BOUNDARY MISC KINETIC TOTAL TEMP POTENTIAL TOTALAVG TEMPAVG PRESSURE GPRESSURE VOLUME PRESSAVG GPRESSAVG
ENERGY: 0 3.2428 1.6308 2.2602 0.0000 -10565.1613 1430.0656 0.0000 0.0000 1769.4688 -7358.4931 302.9729 -9127.9619 -7358.4931 302.9729 17.9957 95.0032 30514.5185 17.9957 95.0032
ENERGY: 300000 4.1511 2.5530 2.4092 0.0000 -10630.7672 1441.2306 0.0000 0.0000 1791.0826 -7389.3407 306.6736 -9180.4233 -7421.2916 302.9854 -138.9991 -95.7759 30519.7446 -3.9138 41.3354
ENERGY: 600000 0.8974 3.0124 5.0560 0.0000 -10611.9589 1343.7381 0.0000 0.0000 1772.9015 -7486.3535 303.5606 -9259.2550 -7429.5062 302.8052 -490.7048 -398.3386 29794.8066 -142.8597 -77.9134
ENERGY: 900000 1.6757 3.6257 3.1275 0.0000 -10778.0549 1531.3147 0.0000 0.0000 1701.2874 -7537.0240 291.2987 -9238.3113 -7454.1216 300.4644 640.3615 693.5531 30525.4800 -45.7642 26.0514
ENERGY: 1200000 3.1612 3.0512 3.4962 0.0000 -10636.9051 1415.6276 0.0000 0.0000 1740.3886 -7471.1803 297.9937 -9211.5689 -7462.3645 300.3894 -143.6052 -111.9610 30251.5942 -123.9798 -55.0827
ENERGY: 1500000 2.3374 4.8695 3.4606 0.0000 -10591.7066 1379.2706 0.0000 0.0000 1738.5944 -7463.1741 297.6865 -9201.7685 -7465.5629 299.5891 -230.2830 -126.2652 29965.4793 -111.2022 -42.5435
TCL: Running FEP window   6: Lambda1 0.7499999999999998 Lambda2 0.6999999999999997 [dLambda -0.050000000000000044]
TCL: Setting parameter firsttimestep to 0
TCL: Setting parameter alchLambda to 0.7499999999999998
Info: NONBONDED TABLE R-SQUARED SPACING: 0.0625
Info: NONBONDED TABLE SIZE: 705 POINTS
TCL: Setting parameter alchLambda2 to 0.6999999999999997
Info: NONBONDED TABLE R-SQUARED SPACING: 0.0625
Info: NONBONDED TABLE SIZE: 705 POINTS
TCL: Running for 1500000 steps
ETITLE: TS BOND ANGLE DIHED IMPRP ELECT VDW BOUNDARY MISC KINETIC TOTAL TEMP POTENTIAL TOTALAVG TEMPAVG PRESSURE GPRESSURE VOLUME PRESSAVG GPRESSAVG
ENERGY: 0 2.3374 4.8695 3.4606 0.0000 -10591.1351 1379.0250 0.0000 0.0000 1737.7358 -7463.7069 297.5394 -9201.4427 -7463.7069 297.5394 -227.2484 -141.3303 29965.4793 -227.2484 -141.3303
ENERGY: 300000 2.7280 1.6606 1.5887 0.0000 -10695.9334 1393.7151 0.0000 0.0000 1795.0766 -7501.1644 307.3575 -9296.2410 -7442.4103 301.3825 -293.3988 -197.5622 29725.9167 -224.9131 -165.4631
ENERGY: 600000 3.5181 1.2424 3.7795 0.0000 -10653.6838 1427.8579 0.0000 0.0000 1770.3408 -7446.9451 303.1222 -9217.2859 -7452.9427 300.9862 -122.7434 -60.4859 30101.8232 -232.5825 -179.8013
ENERGY: 900000 1.6799 3.1042 5.6162 0.0000 -10736.2926 1479.2942 0.0000 0.0000 1757.3323 -7489.2658 300.8948 -9246.5981 -7441.5391 300.7807 248.5929 261.2813 30384.8051 -126.9825 -77.8875
ENERGY: 1200000 3.9637 4.3178 1.4592 0.0000 -10592.9197 1439.8431 0.0000 0.0000 1809.3557 -7333.9802 309.8024 -9143.3359 -7441.0939 301.0410 324.3016 382.9065 30494.6748 -65.2325 -9.7735
ENERGY: 1500000 3.7808 1.7172 0.9947 0.0000 -10761.2421 1499.0815 0.0000 0.0000 1828.8480 -7426.8200 313.1399 -9255.6680 -7446.5809 301.4554 176.8640 265.0693 30554.0143 -27.5797 31.7215
TCL: Running FEP window   7: Lambda1 0.6999999999999997 Lambda2 0.6499999999999997 [dLambda -0.050000000000000044]
TCL: Setting parameter firsttimestep to 0
TCL: Setting parameter alchLambda to 0.6999999999999997
Info: NONBONDED TABLE R-SQUARED SPACING: 0.0625
Info: NONBONDED TABLE SIZE: 705 POINTS
TCL: Setting parameter alchLambda2 to 0.6499999999999997
Info: NONBONDED TABLE R-SQUARED SPACING: 0.0625
Info: NONBONDED TABLE SIZE: 705 POINTS
TCL: Running for 1500000 steps
ETITLE: TS BOND ANGLE DIHED IMPRP ELECT VDW BOUNDARY MISC KINETIC TOTAL TEMP POTENTIAL TOTALAVG TEMPAVG PRESSURE GPRESSURE VOLUME PRESSAVG GPRESSAVG
ENERGY: 0 3.7808 1.7172 0.9947 0.0000 -10758.8816 1497.7750 0.0000 0.0000 1827.9684 -7426.6457 312.9893 -9254.6141 -7426.6457 312.9893 163.7277 250.6362 30554.0143 163.7277 250.6362
ENERGY: 300000 2.2834 6.2393 4.3937 0.0000 -10677.3467 1466.1706 0.0000 0.0000 1759.3595 -7438.9003 301.2419 -9198.2597 -7458.8241 304.6256 262.3196 317.3048 30010.2485 -160.9049 -95.7663
ENERGY: 600000 1.1395 2.0402 2.0655 0.0000 -10635.7426 1402.1747 0.0000 0.0000 1721.2518 -7507.0710 294.7170 -9228.3228 -7452.9237 303.6200 -229.5369 -224.5397 30200.3006 -27.3418 25.2538
ENERGY: 900000 5.8176 4.6561 1.2826 0.0000 -10646.0814 1456.6612 0.0000 0.0000 1749.1431 -7428.5207 299.4926 -9177.6638 -7440.2258 303.2676 171.6912 253.0490 30333.4348 10.8499 71.0567
ENERGY: 1200000 3.5555 2.0508 9.3183 0.0000 -10677.7449 1468.6528 0.0000 0.0000 1745.9492 -7448.2183 298.9458 -9194.1675 -7440.3714 302.8491 525.5433 492.3051 30078.6414 -5.7762 49.0468
ENERGY: 1500000 1.3305 2.8186 3.4471 0.0000 -10648.6402 1451.1692 0.0000 0.0000 1763.1218 -7426.7530 301.8861 -9189.8748 -7436.7292 302.6902 318.9282 373.8582 30009.9569 -12.1472 42.0147
TCL: Running FEP window   8: Lambda1 0.6499999999999997 Lambda2 0.5999999999999996 [dLambda -0.050000000000000044]
TCL: Setting parameter firsttimestep to 0
TCL: Setting parameter alchLambda to 0.6499999999999997
Info: NONBONDED TABLE R-SQUARED SPACING: 0.0625
Info: NONBONDED TABLE SIZE: 705 POINTS
TCL: Setting parameter alchLambda2 to 0.5999999999999996
Info: NONBONDED TABLE R-SQUARED SPACING: 0.0625
Info: NONBONDED TABLE SIZE: 705 POINTS
TCL: Running for 1500000 steps
ETITLE: TS BOND ANGLE DIHED IMPRP ELECT VDW BOUNDARY MISC KINETIC TOTAL TEMP POTENTIAL TOTALAVG TEMPAVG PRESSURE GPRESSURE VOLUME PRESSAVG GPRESSAVG
ENERGY: 0 1.3305 2.8186 3.4471 0.0000 -10646.8183 1450.1739 0.0000 0.0000 1762.2671 -7426.7810 301.7398 -9189.0481 -7426.7810 301.7398 276.1986 360.8406 30009.9569 276.1986 360.8406
ENERGY: 300000 1.6338 5.8157 2.8316 0.0000 -10712.6128 1452.2409 0.0000 0.0000 1779.9140 -7470.1767 304.7613 -9250.0907 -7456.5368 301.0147 357.7219 478.5497 29613.0762 -83.1974 -25.4515
ENERGY: 600000 1.7331 1.3591 2.3147 0.0000 -10650.4196 1437.1997 0.0000 0.0000 1772.0871 -7435.7259 303.4212 -9207.8130 -7453.8620 302.0818 120.9184 236.0349 29918.1343 -88.0428 -38.3487
ENERGY: 900000 1.8059 2.4216 0.8374 0.0000 -10700.3107 1503.2828 0.0000 0.0000 1727.6193 -7464.3437 295.8073 -9191.9630 -7472.4077 300.9185 738.6615 813.1922 30041.9925 85.6556 138.3410
ENERGY: 1200000 3.1600 1.9227 4.8929 0.0000 -10579.2470 1373.0902 0.0000 0.0000 1787.9866 -7408.1946 306.1435 -9196.1812 -7468.5400 300.3110 -200.8787 -86.8339 29658.1780 2.2242 51.6486
ENERGY: 1500000 2.1253 3.7005 2.1018 0.0000 -10767.9613 1478.5489 0.0000 0.0000 1798.8335 -7482.6514 308.0007 -9281.4849 -7473.7514 300.1301 200.4572 266.1840 30363.8304 -13.9109 33.3885
TCL: Running FEP window   9: Lambda1 0.5999999999999996 Lambda2 0.5499999999999996 [dLambda -0.050000000000000044]
TCL: Setting parameter firsttimestep to 0
TCL: Setting parameter alchLambda to 0.5999999999999996
Info: NONBONDED TABLE R-SQUARED SPACING: 0.0625
Info: NONBONDED TABLE SIZE: 705 POINTS
TCL: Setting parameter alchLambda2 to 0.5499999999999996
Info: NONBONDED TABLE R-SQUARED SPACING: 0.0625
Info: NONBONDED TABLE SIZE: 705 POINTS
TCL: Running for 1500000 steps
ETITLE: TS BOND ANGLE DIHED IMPRP ELECT VDW BOUNDARY MISC KINETIC TOTAL TEMP POTENTIAL TOTALAVG TEMPAVG PRESSURE GPRESSURE VOLUME PRESSAVG GPRESSAVG
ENERGY: 0 2.1253 3.7005 2.1018 0.0000 -10767.1848 1478.7348 0.0000 0.0000 1797.9533 -7482.5691 307.8500 -9280.5225 -7482.5691 307.8500 165.5220 261.3252 30363.8304 165.5220 261.3252
ENERGY: 300000 1.1048 3.9986 2.7566 0.0000 -10592.0399 1408.8093 0.0000 0.0000 1795.6337 -7379.7370 307.4529 -9175.3707 -7438.4798 307.1424 68.7730 134.1841 30190.7185 215.0653 243.5985
ENERGY: 600000 8.3106 4.2583 6.2169 0.0000 -10591.1005 1412.5022 0.0000 0.0000 1736.8192 -7422.9932 297.3825 -9159.8124 -7458.5508 302.5373 43.5411 113.3055 29786.3795 117.2030 142.8244
ENERGY: 900000 1.8393 1.5429 3.5075 0.0000 -10766.4852 1465.2741 0.0000 0.0000 1729.1438 -7565.1776 296.0683 -9294.3214 -7480.6874 301.2902 43.4640 37.0482 29773.8472 175.9242 213.8630
ENERGY: 1200000 1.2598 2.6144 4.3519 0.0000 -10722.9556 1411.9134 0.0000 0.0000 1744.0245 -7558.7917 298.6162 -9302.8162 -7481.9804 301.3412 -176.6052 -130.0311 29892.4878 41.4108 79.3899
ENERGY: 1500000 1.6498 2.7432 6.0226 0.0000 -10709.5376 1435.0401 0.0000 0.0000 1758.8247 -7505.2573 301.1503 -9264.0820 -7480.1497 301.5820 -30.4236 -17.4626 30159.5794 -12.1304 25.9201
TCL: Running FEP window  10: Lambda1 0.5499999999999996 Lambda2 0.4999999999999996 [dLambda -0.04999999999999999]
TCL: Setting parameter firsttimestep to 0
TCL: Setting parameter alchLambda to 0.5499999999999996
Info: NONBONDED TABLE R-SQUARED SPACING: 0.0625
Info: NONBONDED TABLE SIZE: 705 POINTS
TCL: Setting parameter alchLambda2 to 0.4999999999999996
Info: NONBONDED TABLE R-SQUARED SPACING: 0.0625
Info: NONBONDED TABLE SIZE: 705 POINTS
TCL: Running for 1500000 steps
ETITLE: TS BOND ANGLE DIHED IMPRP ELECT VDW BOUNDARY MISC KINETIC TOTAL TEMP POTENTIAL TOTALAVG TEMPAVG PRESSURE GPRESSURE VOLUME PRESSAVG GPRESSAVG
ENERGY: 0 1.6498 2.7432 6.0226 0.0000 -10709.1499 1435.3954 0.0000 0.0000 1757.9924 -7505.3465 301.0078 -9263.3389 -7505.3465 301.0078 -89.9563 -18.7821 30159.5794 -89.9563 -18.7821
ENERGY: 300000 2.9384 2.9242 5.6354 0.0000 -10732.3262 1470.6374 0.0000 0.0000 1743.6766 -7506.5141 298.5567 -9250.1908 -7475.4651 301.0919 380.3700 374.1960 29936.5203 -24.4187 14.5327
ENERGY: 600000 4.5776 3.1308 2.9817 0.0000 -10659.9508 1437.5638 0.0000 0.0000 1698.3306 -7513.3664 290.7924 -9211.6970 -7471.7732 299.9345 -234.6462 -136.6090 30352.8918 -108.6927 -61.8076
ENERGY: 900000 4.7662 1.6346 2.0189 0.0000 -10698.3542 1452.1209 0.0000 0.0000 1785.3985 -7452.4151 305.7004 -9237.8136 -7455.9872 301.4538 136.2369 137.7096 30382.3495 -37.0815 14.4150
ENERGY: 1200000 1.4060 6.6348 5.1107 0.0000 -10681.1341 1446.4665 0.0000 0.0000 1840.8084 -7380.7077 315.1878 -9221.5161 -7448.3791 302.2067 289.8290 310.6693 29952.3330 -28.8641 26.2283
ENERGY: 1500000 2.0575 1.9051 2.6072 0.0000 -10772.1396 1505.2099 0.0000 0.0000 1819.7197 -7440.6401 311.5769 -9260.3598 -7455.0311 302.8776 567.5334 639.4591 29913.9852 49.8001 106.0153
TCL: Running FEP window  11: Lambda1 0.4999999999999996 Lambda2 0.4499999999999996 [dLambda -0.04999999999999999]
TCL: Setting parameter firsttimestep to 0
TCL: Setting parameter alchLambda to 0.4999999999999996
Info: NONBONDED TABLE R-SQUARED SPACING: 0.0625
Info: NONBONDED TABLE SIZE: 705 POINTS
TCL: Setting parameter alchLambda2 to 0.4499999999999996
Info: NONBONDED TABLE R-SQUARED SPACING: 0.0625
Info: NONBONDED TABLE SIZE: 705 POINTS
TCL: Running for 1500000 steps
ETITLE: TS BOND ANGLE DIHED IMPRP ELECT VDW BOUNDARY MISC KINETIC TOTAL TEMP POTENTIAL TOTALAVG TEMPAVG PRESSURE GPRESSURE VOLUME PRESSAVG GPRESSAVG
ENERGY: 0 2.0575 1.9050 2.6072 0.0000 -10772.2354 1505.0089 0.0000 0.0000 1818.8545 -7441.8022 311.4288 -9260.6567 -7441.8022 311.4288 556.5798 632.3471 29913.9852 556.5798 632.3471
ENERGY: 300000 2.7151 1.3331 1.5062 0.0000 -10717.8149 1463.5956 0.0000 0.0000 1767.3692 -7481.2958 302.6134 -9248.6650 -7493.1589 301.8390 90.3185 79.7929 30559.4749 109.0735 145.0089
ENERGY: 600000 3.2156 5.6958 4.2699 0.0000 -10546.8096 1320.6982 0.0000 0.0000 1829.0065 -7383.9236 313.1670 -9212.9301 -7486.8972 301.9018 -1068.6316 -965.2256 30438.4097 32.2422 80.4614
ENERGY: 900000 1.2909 1.9596 4.4785 0.0000 -10697.9261 1504.3139 0.0000 0.0000 1710.1433 -7475.7398 292.8150 -9185.8831 -7481.0315 300.3829 876.7549 925.3193 29809.0906 27.0428 75.7262
ENERGY: 1200000 3.4463 6.1491 3.3356 0.0000 -10624.3571 1415.0103 0.0000 0.0000 1711.4345 -7484.9813 293.0361 -9196.4158 -7477.0353 299.5036 -6.1440 21.1640 29992.3459 -32.0976 9.2223
ENERGY: 1500000 2.2584 2.2912 2.7667 0.0000 -10610.9059 1461.8258 0.0000 0.0000 1705.0225 -7436.7413 291.9382 -9141.7638 -7473.0995 299.6263 401.8302 503.6809 30298.2956 39.3352 89.2221
TCL: Running FEP window  12: Lambda1 0.4499999999999996 Lambda2 0.39999999999999963 [dLambda -0.04999999999999999]
TCL: Setting parameter firsttimestep to 0
TCL: Setting parameter alchLambda to 0.4499999999999996
Info: NONBONDED TABLE R-SQUARED SPACING: 0.0625
Info: NONBONDED TABLE SIZE: 705 POINTS
TCL: Setting parameter alchLambda2 to 0.39999999999999963
Info: NONBONDED TABLE R-SQUARED SPACING: 0.0625
Info: NONBONDED TABLE SIZE: 705 POINTS
TCL: Running for 1500000 steps
ETITLE: TS BOND ANGLE DIHED IMPRP ELECT VDW BOUNDARY MISC KINETIC TOTAL TEMP POTENTIAL TOTALAVG TEMPAVG PRESSURE GPRESSURE VOLUME PRESSAVG GPRESSAVG
ENERGY: 0 2.2584 2.2912 2.7667 0.0000 -10610.9061 1461.6410 0.0000 0.0000 1704.1360 -7437.8128 291.7864 -9141.9488 -7437.8128 291.7864 409.3340 497.4051 30298.2956 409.3340 497.4051
ENERGY: 300000 1.0408 3.3701 5.3640 0.0000 -10724.8534 1509.1915 0.0000 0.0000 1781.5393 -7424.3477 305.0396 -9205.8870 -7451.4228 299.9373 711.5285 709.0884 29968.5599 613.0122 675.8829
ENERGY: 600000 2.7024 2.2772 1.7620 0.0000 -10699.6163 1467.5224 0.0000 0.0000 1691.3395 -7534.0127 289.5954 -9225.3522 -7455.4634 299.8776 94.0819 96.2400 30123.1408 346.9282 404.6278
ENERGY: 900000 2.4896 5.8124 2.4743 0.0000 -10632.9674 1395.1746 0.0000 0.0000 1741.1715 -7485.8451 298.1277 -9227.0165 -7448.0104 299.8800 -519.9902 -418.4602 30462.5798 125.9268 188.3456
ENERGY: 1200000 2.6802 5.9206 2.7815 0.0000 -10694.6456 1438.9834 0.0000 0.0000 1739.0201 -7505.2598 297.7593 -9244.2799 -7455.6986 299.8982 53.4358 63.3029 30174.7862 151.9846 209.8015
ENERGY: 1500000 1.0139 2.9558 1.1605 0.0000 -10677.3281 1443.6668 0.0000 0.0000 1810.5752 -7417.9559 310.0112 -9228.5310 -7456.2356 301.4520 232.6354 260.9888 29898.1317 165.5671 216.3584
TCL: Running FEP window  13: Lambda1 0.39999999999999963 Lambda2 0.34999999999999964 [dLambda -0.04999999999999999]
TCL: Setting parameter firsttimestep to 0
TCL: Setting parameter alchLambda to 0.39999999999999963
Info: NONBONDED TABLE R-SQUARED SPACING: 0.0625
Info: NONBONDED TABLE SIZE: 705 POINTS
TCL: Setting parameter alchLambda2 to 0.34999999999999964
Info: NONBONDED TABLE R-SQUARED SPACING: 0.0625
Info: NONBONDED TABLE SIZE: 705 POINTS
TCL: Running for 1500000 steps
ETITLE: TS BOND ANGLE DIHED IMPRP ELECT VDW BOUNDARY MISC KINETIC TOTAL TEMP POTENTIAL TOTALAVG TEMPAVG PRESSURE GPRESSURE VOLUME PRESSAVG GPRESSAVG
ENERGY: 0 1.0139 2.9558 1.1605 0.0000 -10677.3275 1443.7836 0.0000 0.0000 1809.7342 -7418.6795 309.8672 -9228.4137 -7418.6795 309.8672 172.4229 257.1134 29898.1317 172.4229 257.1134
ENERGY: 300000 1.7024 3.6997 4.2876 0.0000 -10572.5866 1414.5167 0.0000 0.0000 1847.6526 -7300.7277 316.3597 -9148.3803 -7412.4773 305.4515 -5.8897 39.3201 30434.4529 151.2721 210.6977
ENERGY: 600000 2.1532 2.3002 4.0445 0.0000 -10536.5384 1347.9981 0.0000 0.0000 1706.8209 -7473.2215 292.2461 -9180.0424 -7446.0275 302.0747 -847.9296 -779.9643 30564.1539 112.3577 168.1161
ENERGY: 900000 0.6943 2.8726 4.0729 0.0000 -10648.0539 1416.1303 0.0000 0.0000 1738.0291 -7486.2547 297.5897 -9224.2838 -7451.8249 301.0736 39.5266 53.5250 30096.5008 63.4516 111.4448
ENERGY: 1200000 0.7930 2.2658 6.6551 0.0000 -10643.6158 1502.6789 0.0000 0.0000 1745.0767 -7386.1463 298.7964 -9131.2230 -7449.9314 300.6301 555.6672 554.7226 30635.3355 43.3772 84.1105
ENERGY: 1500000 2.8055 5.0146 3.6356 0.0000 -10729.3827 1464.0027 0.0000 0.0000 1754.0847 -7499.8398 300.3387 -9253.9244 -7455.1878 300.3348 -15.8876 105.7537 30108.1935 30.0402 80.9124
TCL: Running FEP window  14: Lambda1 0.34999999999999964 Lambda2 0.29999999999999966 [dLambda -0.04999999999999999]
TCL: Setting parameter firsttimestep to 0
TCL: Setting parameter alchLambda to 0.34999999999999964
Info: NONBONDED TABLE R-SQUARED SPACING: 0.0625
Info: NONBONDED TABLE SIZE: 705 POINTS
TCL: Setting parameter alchLambda2 to 0.29999999999999966
Info: NONBONDED TABLE R-SQUARED SPACING: 0.0625
Info: NONBONDED TABLE SIZE: 705 POINTS
TCL: Running for 1500000 steps
ETITLE: TS BOND ANGLE DIHED IMPRP ELECT VDW BOUNDARY MISC KINETIC TOTAL TEMP POTENTIAL TOTALAVG TEMPAVG PRESSURE GPRESSURE VOLUME PRESSAVG GPRESSAVG
ENERGY: 0 2.8055 5.0146 3.6356 0.0000 -10729.3830 1464.4847 0.0000 0.0000 1753.2148 -7500.2279 300.1898 -9253.4428 -7500.2279 300.1898 22.4472 105.1593 30108.1935 22.4472 105.1593
ENERGY: 300000 1.2526 2.2999 1.5836 0.0000 -10613.3450 1359.1676 0.0000 0.0000 1774.3861 -7474.6552 303.8148 -9249.0413 -7467.5484 300.6533 -721.6825 -611.7029 30535.5339 -395.0317 -298.9730
ENERGY: 600000 0.9785 2.5703 3.4436 0.0000 -10724.9951 1443.7334 0.0000 0.0000 1764.6958 -7509.5734 302.1556 -9274.2692 -7478.8454 299.7236 -129.6185 -30.4337 30017.3216 -343.2807 -258.5485
ENERGY: 900000 2.6235 5.2055 2.7062 0.0000 -10659.9464 1466.8173 0.0000 0.0000 1822.9013 -7359.6926 312.1217 -9182.5939 -7455.8303 302.2836 339.1345 427.9355 29992.8003 -242.3304 -162.6593
ENERGY: 1200000 1.9550 4.5754 2.7613 0.0000 -10565.2269 1406.2260 0.0000 0.0000 1763.5534 -7386.1558 301.9600 -9149.7092 -7450.0570 302.5431 -83.6417 -16.3758 30429.5138 -315.8939 -231.9230
ENERGY: 1500000 0.8062 3.2237 3.2356 0.0000 -10687.2699 1497.7471 0.0000 0.0000 1791.6408 -7390.6165 306.7692 -9182.2573 -7448.9983 301.7944 567.5004 602.1655 30073.3637 -241.0736 -160.5824
TCL: Running FEP window  15: Lambda1 0.29999999999999966 Lambda2 0.24999999999999967 [dLambda -0.04999999999999999]
TCL: Setting parameter firsttimestep to 0
TCL: Setting parameter alchLambda to 0.29999999999999966
Info: NONBONDED TABLE R-SQUARED SPACING: 0.0625
Info: NONBONDED TABLE SIZE: 705 POINTS
TCL: Setting parameter alchLambda2 to 0.24999999999999967
Info: NONBONDED TABLE R-SQUARED SPACING: 0.0625
Info: NONBONDED TABLE SIZE: 705 POINTS
TCL: Running for 1500000 steps
ETITLE: TS BOND ANGLE DIHED IMPRP ELECT VDW BOUNDARY MISC KINETIC TOTAL TEMP POTENTIAL TOTALAVG TEMPAVG PRESSURE GPRESSURE VOLUME PRESSAVG GPRESSAVG
ENERGY: 0 0.8062 3.2237 3.2356 0.0000 -10687.2712 1498.0362 0.0000 0.0000 1790.7640 -7391.2055 306.6191 -9181.9695 -7391.2055 306.6191 519.8755 600.4194 30073.3637 519.8755 600.4194
ENERGY: 300000 2.1066 5.3454 3.7700 0.0000 -10657.1262 1448.8998 0.0000 0.0000 1744.4575 -7452.5468 298.6904 -9197.0043 -7437.4659 298.2118 227.0577 276.2781 30406.7355 296.7741 351.5936
ENERGY: 600000 0.2884 2.8843 4.0844 0.0000 -10596.5569 1431.7102 0.0000 0.0000 1712.5150 -7445.0745 293.2211 -9157.5895 -7442.1267 296.8236 108.3411 274.4352 30139.0834 200.9161 267.0908
ENERGY: 900000 0.3617 2.3665 4.0987 0.0000 -10594.1349 1455.3578 0.0000 0.0000 1708.4098 -7423.5405 292.5182 -9131.9503 -7448.8056 296.5681 605.7767 563.1067 30178.0844 188.9440 246.3740
ENERGY: 1200000 1.2381 1.4402 2.5862 0.0000 -10550.6231 1373.2992 0.0000 0.0000 1756.2677 -7415.7918 300.7125 -9172.0595 -7441.1215 297.7662 -429.7989 -431.4259 30232.0230 215.0997 269.6910
ENERGY: 1500000 1.8948 3.8185 1.6429 0.0000 -10617.1730 1438.2394 0.0000 0.0000 1689.6819 -7481.8957 289.3115 -9171.5775 -7445.5306 297.9890 199.8105 265.8591 29811.4342 238.4954 294.5579
TCL: Running FEP window  16: Lambda1 0.24999999999999967 Lambda2 0.19999999999999968 [dLambda -0.04999999999999999]
TCL: Setting parameter firsttimestep to 0
TCL: Setting parameter alchLambda to 0.24999999999999967
Info: NONBONDED TABLE R-SQUARED SPACING: 0.0625
Info: NONBONDED TABLE SIZE: 705 POINTS
TCL: Setting parameter alchLambda2 to 0.19999999999999968
Info: NONBONDED TABLE R-SQUARED SPACING: 0.0625
Info: NONBONDED TABLE SIZE: 705 POINTS
TCL: Running for 1500000 steps
ETITLE: TS BOND ANGLE DIHED IMPRP ELECT VDW BOUNDARY MISC KINETIC TOTAL TEMP POTENTIAL TOTALAVG TEMPAVG PRESSURE GPRESSURE VOLUME PRESSAVG GPRESSAVG
ENERGY: 0 1.8948 3.8185 1.6429 0.0000 -10617.1725 1438.3336 0.0000 0.0000 1688.7997 -7482.6831 289.1605 -9171.4828 -7482.6831 289.1605 175.6952 264.0349 29811.4342 175.6952 264.0349
ENERGY: 300000 1.7711 2.9936 1.0350 0.0000 -10569.2578 1347.3069 0.0000 0.0000 1728.1078 -7488.0434 295.8909 -9216.1512 -7476.0226 296.8939 -700.5659 -606.8078 30146.5167 -32.9993 38.0633
ENERGY: 600000 2.8400 5.9900 1.1206 0.0000 -10628.7881 1398.3130 0.0000 0.0000 1792.7441 -7427.7803 306.9581 -9220.5245 -7454.3395 299.6752 -365.9808 -334.1878 30178.8450 -112.9041 -29.5399
ENERGY: 900000 0.9538 1.6947 3.4234 0.0000 -10749.1285 1487.3340 0.0000 0.0000 1772.4528 -7483.2698 303.4838 -9255.7226 -7474.9274 298.8121 473.6003 567.8975 29836.7629 -172.8307 -97.4914
ENERGY: 1200000 2.1776 4.3216 4.3668 0.0000 -10592.5682 1405.1229 0.0000 0.0000 1728.4848 -7448.0945 295.9555 -9176.5793 -7474.2056 298.4532 -160.1555 -111.0702 30081.5363 -300.9839 -231.3055
ENERGY: 1500000 2.1226 3.3426 2.4116 0.0000 -10596.5166 1360.1613 0.0000 0.0000 1719.8097 -7508.6689 294.4701 -9228.4785 -7470.7388 299.2164 -558.1431 -496.6338 29750.1862 -311.6596 -243.9646
TCL: Running FEP window  17: Lambda1 0.19999999999999968 Lambda2 0.1499999999999997 [dLambda -0.04999999999999999]
TCL: Setting parameter firsttimestep to 0
TCL: Setting parameter alchLambda to 0.19999999999999968
Info: NONBONDED TABLE R-SQUARED SPACING: 0.0625
Info: NONBONDED TABLE SIZE: 705 POINTS
TCL: Setting parameter alchLambda2 to 0.1499999999999997
Info: NONBONDED TABLE R-SQUARED SPACING: 0.0625
Info: NONBONDED TABLE SIZE: 705 POINTS
TCL: Running for 1500000 steps
ETITLE: TS BOND ANGLE DIHED IMPRP ELECT VDW BOUNDARY MISC KINETIC TOTAL TEMP POTENTIAL TOTALAVG TEMPAVG PRESSURE GPRESSURE VOLUME PRESSAVG GPRESSAVG
ENERGY: 0 2.1226 3.3426 2.4116 0.0000 -10596.5165 1359.7434 0.0000 0.0000 1718.8677 -7510.0286 294.3088 -9228.8963 -7510.0286 294.3088 -590.5711 -500.3937 29750.1862 -590.5711 -500.3937
ENERGY: 300000 2.3974 3.9498 2.3964 0.0000 -10698.2182 1532.3293 0.0000 0.0000 1757.6297 -7399.5156 300.9457 -9157.1453 -7442.8132 301.1994 658.4694 741.7690 30512.6458 100.6737 154.3137
ENERGY: 600000 1.7862 4.2411 3.2384 0.0000 -10779.3149 1485.6070 0.0000 0.0000 1751.6379 -7532.8043 299.9198 -9284.4422 -7473.1184 301.1562 115.8375 161.7406 30460.0962 2.6486 50.2848
ENERGY: 900000 3.3191 2.9489 4.1141 0.0000 -10581.0889 1387.6052 0.0000 0.0000 1789.4891 -7393.6124 306.4008 -9183.1015 -7437.0518 302.7890 -396.1648 -372.5332 30463.3155 -152.6550 -97.8049
ENERGY: 1200000 2.3400 1.7659 4.0090 0.0000 -10561.8850 1383.9252 0.0000 0.0000 1708.4108 -7461.4342 292.5184 -9169.8450 -7433.0702 302.7736 -285.1040 -250.8997 30081.4573 -156.5806 -111.0317
ENERGY: 1500000 2.5264 2.5204 2.1978 0.0000 -10577.6925 1398.8135 0.0000 0.0000 1782.9855 -7388.6489 305.2872 -9171.6344 -7435.8251 301.7462 -171.2921 -119.1890 30150.9464 -179.2576 -125.8503
TCL: Running FEP window  18: Lambda1 0.1499999999999997 Lambda2 0.09999999999999969 [dLambda -0.05 ]
TCL: Setting parameter firsttimestep to 0
TCL: Setting parameter alchLambda to 0.1499999999999997
Info: NONBONDED TABLE R-SQUARED SPACING: 0.0625
Info: NONBONDED TABLE SIZE: 705 POINTS
TCL: Setting parameter alchLambda2 to 0.09999999999999969
Info: NONBONDED TABLE R-SQUARED SPACING: 0.0625
Info: NONBONDED TABLE SIZE: 705 POINTS
TCL: Running for 1500000 steps
ETITLE: TS BOND ANGLE DIHED IMPRP ELECT VDW BOUNDARY MISC KINETIC TOTAL TEMP POTENTIAL TOTALAVG TEMPAVG PRESSURE GPRESSURE VOLUME PRESSAVG GPRESSAVG
ENERGY: 0 2.5264 2.5204 2.1978 0.0000 -10577.6930 1399.0432 0.0000 0.0000 1782.1456 -7389.2596 305.1434 -9171.4052 -7389.2596 305.1434 -209.8853 -120.0502 30150.9464 -209.8853 -120.0502
ENERGY: 300000 4.0454 3.6733 3.7065 0.0000 -10611.0528 1354.4677 0.0000 0.0000 1757.3324 -7487.8275 300.8948 -9245.1599 -7452.7723 302.3276 -738.8918 -698.9703 30350.9148 -355.7484 -314.2681
ENERGY: 600000 1.2536 1.5330 7.9755 0.0000 -10545.8150 1364.6590 0.0000 0.0000 1695.3059 -7475.0880 290.2745 -9170.3938 -7438.5013 300.5003 -561.9285 -562.8317 30326.6968 -430.3096 -388.6136
ENERGY: 900000 2.9865 4.3118 2.5890 0.0000 -10599.6036 1386.4471 0.0000 0.0000 1722.5255 -7480.7437 294.9351 -9203.2692 -7437.7682 300.9902 -474.9345 -449.1951 30168.2447 -436.2868 -388.4286
ENERGY: 1200000 3.8162 2.1723 3.2331 0.0000 -10514.2089 1352.5915 0.0000 0.0000 1695.8924 -7456.5034 290.3749 -9152.3958 -7438.2966 299.6418 -494.7808 -396.1327 30112.3622 -374.0310 -311.6056
ENERGY: 1500000 5.7226 3.5253 3.1213 0.0000 -10636.7093 1425.1300 0.0000 0.0000 1784.8826 -7414.3274 305.6120 -9199.2101 -7441.9656 300.0483 -265.1270 -221.0692 30301.7132 -329.1705 -268.4254
TCL: Running FEP window  19: Lambda1 0.09999999999999969 Lambda2 0.049999999999999684 [dLambda -0.05 ]
TCL: Setting parameter firsttimestep to 0
TCL: Setting parameter alchLambda to 0.09999999999999969
Info: NONBONDED TABLE R-SQUARED SPACING: 0.0625
Info: NONBONDED TABLE SIZE: 705 POINTS
TCL: Setting parameter alchLambda2 to 0.049999999999999684
Info: NONBONDED TABLE R-SQUARED SPACING: 0.0625
Info: NONBONDED TABLE SIZE: 705 POINTS
TCL: Running for 1500000 steps
ETITLE: TS BOND ANGLE DIHED IMPRP ELECT VDW BOUNDARY MISC KINETIC TOTAL TEMP POTENTIAL TOTALAVG TEMPAVG PRESSURE GPRESSURE VOLUME PRESSAVG GPRESSAVG
ENERGY: 0 5.7226 3.5253 3.1213 0.0000 -10636.7097 1424.0940 0.0000 0.0000 1784.0569 -7416.1896 305.4707 -9200.2465 -7416.1896 305.4707 -304.6524 -227.1516 30301.7132 -304.6524 -227.1516
ENERGY: 300000 2.1814 2.2181 2.0754 0.0000 -10640.8977 1430.1847 0.0000 0.0000 1746.3201 -7457.9181 299.0093 -9204.2382 -7438.3685 306.4445 -74.5667 -29.4568 30282.6567 -165.0599 -97.3600
ENERGY: 600000 1.9955 2.9678 2.9951 0.0000 -10579.2008 1390.8365 0.0000 0.0000 1726.1451 -7454.2607 295.5549 -9180.4058 -7466.8386 301.7301 -371.7236 -308.5924 30376.5179 -113.6186 -37.4326
ENERGY: 900000 6.0050 1.4108 5.6532 0.0000 -10809.7291 1554.8217 0.0000 0.0000 1755.1250 -7486.7133 300.5169 -9241.8384 -7481.1254 300.3540 957.8783 982.8655 29765.5194 -25.7441 47.6884
ENERGY: 1200000 2.0839 5.9434 1.5897 0.0000 -10541.2940 1338.9232 0.0000 0.0000 1734.9068 -7457.8472 297.0551 -9192.7540 -7476.0823 300.7702 -600.7563 -550.6102 29963.1907 -80.3026 -14.0415
ENERGY: 1500000 0.7988 8.6094 4.5817 0.0000 -10685.4211 1519.5934 0.0000 0.0000 1741.7467 -7410.0912 298.2262 -9151.8378 -7466.1305 301.2356 941.8871 1029.0563 29752.1571 50.5867 112.5064
TCL: Running FEP window  20: Lambda1 0.049999999999999684 Lambda2 0.0    [dLambda -0.049999999999999684]
TCL: Setting parameter firsttimestep to 0
TCL: Setting parameter alchLambda to 0.049999999999999684
Info: NONBONDED TABLE R-SQUARED SPACING: 0.0625
Info: NONBONDED TABLE SIZE: 705 POINTS
TCL: Setting parameter alchLambda2 to 0.0
Info: NONBONDED TABLE R-SQUARED SPACING: 0.0625
Info: NONBONDED TABLE SIZE: 705 POINTS
TCL: Running for 1500000 steps
ETITLE: TS BOND ANGLE DIHED IMPRP ELECT VDW BOUNDARY MISC KINETIC TOTAL TEMP POTENTIAL TOTALAVG TEMPAVG PRESSURE GPRESSURE VOLUME PRESSAVG GPRESSAVG
ENERGY: 0 0.7988 8.6094 4.5817 0.0000 -10685.4208 1518.2377 0.0000 0.0000 1740.8543 -7412.3389 298.0734 -9153.1931 -7412.3389 298.0734 935.7623 1022.4894 29752.1571 935.7623 1022.4894
ENERGY: 300000 4.4941 2.1958 5.7113 0.0000 -10596.2082 1408.2875 0.0000 0.0000 1773.4262 -7402.0933 303.6504 -9175.5195 -7441.1885 303.5189 -75.3670 -12.6668 29971.6284 41.0319 96.5826
ENERGY: 600000 2.0501 2.0024 2.5723 0.0000 -10598.0815 1397.8885 0.0000 0.0000 1719.8533 -7473.7149 294.4776 -9193.5682 -7477.0626 301.7950 -189.1470 -144.3150 30005.6006 -109.5734 -47.5300
ENERGY: 900000 2.8257 5.5683 5.7841 0.0000 -10713.4860 1453.5395 0.0000 0.0000 1805.8767 -7439.8917 309.2067 -9245.7684 -7471.6390 302.6303 -52.7762 13.6332 30171.8277 -74.6733 -3.5587
ENERGY: 1200000 2.8113 3.7964 2.6845 0.0000 -10666.5490 1413.7789 0.0000 0.0000 1782.2598 -7461.2182 305.1629 -9243.4780 -7471.7378 302.7158 -405.4707 -331.8129 29898.6829 -79.5400 -10.2949
ENERGY: 1500000 2.5723 1.8413 1.9405 0.0000 -10609.1849 1408.2685 0.0000 0.0000 1763.2902 -7431.2720 301.9149 -9194.5623 -7475.9094 301.4779 -80.2272 5.6710 29637.0096 -118.8685 -48.7012
TCL: Exiting due to exit command.
