Info: SIMULATION PARAMETERS:
Info: TIMESTEP               2
Info: NUMBER OF STEPS        0
Info: STEPS PER CYCLE        10
Info: PERIODIC CELL BASIS 1  31.0421 0 0
Info: PERIODIC CELL BASIS 2  0 31.27 0
Info: PERIODIC CELL BASIS 3  0 0 31.6743
Info: PERIODIC CELL CENTER   0 0 0
Info: WRAPPING WATERS AROUND PERIODIC BOUNDARIES ON OUTPUT.
Info: WRAPPING ALL CLUSTERS AROUND PERIODIC BOUNDARIES ON OUTPUT.
Info: FIRST LDB TIMESTEP     50
Info: LAST LDB TIMESTEP     -1
Info: HOM BACKGROUND SCALING 1
Info: PME BACKGROUND SCALING 1
Info: MIN ATOMS PER PATCH    40
Info: EMPTY PATCH LOAD       40 ATOMS
Info: VELOCITY FILE          mobley_2068538_equil.vel
Info: CENTER OF MASS MOVING INITIALLY? NO
Info: DIELECTRIC             1
Info: EXCLUDE                SCALED ONE-FOUR
Info: 1-4 ELECTROSTATICS SCALED BY 0.833333
Info: MODIFIED 1-4 VDW PARAMETERS WILL BE USED
Info: DCD FILENAME           mobley_2068538_prod.dcd
Info: DCD FREQUENCY          100000
Info: DCD FIRST STEP         100000
Info: DCD FILE WILL CONTAIN UNIT CELL DATA
Info: XST FILENAME           mobley_2068538_prod.xst
Info: XST FREQUENCY          100000
Info: NO VELOCITY DCD OUTPUT
Info: NO FORCE DCD OUTPUT
Info: OUTPUT FILENAME        mobley_2068538_prod
Info: BINARY OUTPUT FILES WILL BE USED
Info: RESTART FILENAME       mobley_2068538_prod.restart
Info: RESTART FREQUENCY      100000
Info: BINARY RESTART FILES WILL BE USED
Info: CUTOFF                 9
Info: PAIRLIST DISTANCE      11
Info: PAIRLIST SHRINK RATE   0.01
Info: PAIRLIST GROW RATE     0.01
Info: PAIRLIST TRIGGER       0.3
Info: PAIRLISTS PER CYCLE    2
Info: PAIRLISTS ENABLED
Info: MARGIN                 2
Info: HYDROGEN GROUP CUTOFF  2.5
Info: PATCH DIMENSION        15.5
Info: ENERGY OUTPUT STEPS    100000
Info: ENERGY EVALUATION STEPS    100000
Info: OUTPUT ENERGY PRECISION 4
Info: CROSSTERM ENERGY INCLUDED IN DIHEDRAL
Info: TIMING OUTPUT STEPS    1000000
Info: PRESSURE OUTPUT STEPS  100000
Info: ALCHEMICAL FEP ON
Info: FEP CURRENT LAMBDA VALUE     1
Info: FEP COMPARISON LAMBDA VALUE  0.95
Info: FEP INTRA-ALCHEMICAL NON-BONDED INTERACTIONS WILL BE RETAINED
Info: FEP INTRA-ALCHEMICAL BONDED INTERACTIONS WILL BE RETAINED
Info: FEP VDW SHIFTING COEFFICIENT 5
Info: FEP ELEC. ACTIVE FOR ANNIHILATED PARTICLES BETWEEN LAMBDA = 0 AND LAMBDA = 0.5
Info: FEP ELEC. ACTIVE FOR EXNIHILATED PARTICLES BETWEEN LAMBDA = 0.5 AND LAMBDA = 1
Info: FEP VDW ACTIVE FOR ANNIHILATED PARTICLES BETWEEN LAMBDA = 0 AND LAMBDA = 1
Info: FEP VDW ACTIVE FOR EXNIHILATED PARTICLES BETWEEN LAMBDA = 0 AND LAMBDA = 1
Info: FEP BOND ACTIVE FOR ANNIHILATED PARTICLES BETWEEN LAMBDA = 1 AND LAMBDA = 1
Info: FEP BOND ACTIVE FOR EXNIHILATED PARTICLES BETWEEN LAMBDA = 0 AND LAMBDA = 0
Info: LANGEVIN DYNAMICS ACTIVE
Info: LANGEVIN TEMPERATURE   300
Info: LANGEVIN USING BBK INTEGRATOR
Info: LANGEVIN DAMPING COEFFICIENT IS 1 INVERSE PS
Info: LANGEVIN DYNAMICS APPLIED TO HYDROGENS
Info: LANGEVIN PISTON PRESSURE CONTROL ACTIVE
Info:        TARGET PRESSURE IS 1.01325 BAR
Info:     OSCILLATION PERIOD IS 50 FS
Info:             DECAY TIME IS 25 FS
Info:     PISTON TEMPERATURE IS 300 K
Info:       PRESSURE CONTROL IS GROUP-BASED
Info:    INITIAL STRAIN RATE IS -7.97638e-05 -7.97638e-05 -7.97638e-05
Info:       CELL FLUCTUATION IS ISOTROPIC
Info: PARTICLE MESH EWALD (PME) ACTIVE
Info: PME TOLERANCE               1e-06
Info: PME EWALD COEFFICIENT       0.348832
Info: PME INTERPOLATION ORDER     4
Info: PME GRID DIMENSIONS         32 32 32
Info: PME MAXIMUM GRID SPACING    1
Info: PME CALCULATION WILL BE PERFORMED ON GPU
Info: FULL ELECTROSTATIC EVALUATION FREQUENCY      2
Info: USING VERLET I (r-RESPA) MTS SCHEME.
Info: C1 SPLITTING OF LONG RANGE ELECTROSTATICS
Info: PLACING ATOMS IN PATCHES BY HYDROGEN GROUPS
Info: RIGID BONDS TO HYDROGEN : ALL
Info:         ERROR TOLERANCE : 1e-08
Info:          MAX ITERATIONS : 100
Info: RIGID WATER USING SETTLE ALGORITHM
Info: RANDOM NUMBER SEED     1742553081
Info: USE HYDROGEN BONDS?    NO
Info: Using AMBER format force field!
Info: AMBER PARM FILE        mobley_2068538.prmtop
Info: COORDINATE PDB         mobley_2068538.pdb
Info: Exclusions will be read from PARM file!
Info: SCNB (VDW SCALING)     2
Info: USING ARITHMETIC MEAN TO COMBINE L-J SIGMA PARAMETERS
Info: BINARY COORDINATES     mobley_2068538_equil.coor
Info: SUMMARY OF PARAMETERS:
Info: 4 BONDS
Info: 3 ANGLES
Info:   3 HARMONIC
Info:   0 COSINE-BASED
Info: 2 DIHEDRAL
Info: 0 IMPROPER
Info: 0 CROSSTERM
Info: 0 VDW
Info: 10 VDW_PAIRS
Info: 0 NBTHOLE_PAIRS
Info: To read alchdata from file: mobley_2068538.pdb
Info: To read alchflag data from column: 5
Info: STRUCTURE SUMMARY:
Info: 2984 ATOMS
Info: 2983 BONDS
Info: 18 ANGLES
Info: 18 DIHEDRALS
Info: 0 IMPROPERS
Info: 0 CROSSTERMS
Info: 3019 EXCLUSIONS
Info: 2981 RIGID BONDS
Info: ALCH: 0 ATOMS TO DISAPPEAR IN FINAL STATE
Info: ALCH: 11 ATOMS TO APPEAR IN FINAL STATE
Info: 5971 DEGREES OF FREEDOM
Info: 994 HYDROGEN GROUPS
Info: 4 ATOMS IN LARGEST HYDROGEN GROUP
Info: 994 MIGRATION GROUPS
Info: 4 ATOMS IN LARGEST MIGRATION GROUP
Info: TOTAL MASS = 17898 amu
Info: TOTAL CHARGE = 0.000200011 e
Info: MASS DENSITY = 0.966669 g/cm^3
Info: ATOM DENSITY = 0.0970542 atoms/A^3
Info: ADDED 0 IMPLICIT EXCLUSIONS
Info: NONBONDED TABLE R-SQUARED SPACING: 0.0625
Info: NONBONDED TABLE SIZE: 705 POINTS
Info: REDUCING NUMBER OF PATCHES TO IMPROVE LOAD BALANCE
Info: REMOVING COM VELOCITY 0.036576 0.0964645 0.156901
Info: Use 3D box decompostion in PME FFT.
Info: Updated CUDA force table with 4096 elements.
Info: Updated CUDA LJ table with 4 x 4 elements.
Info: Found 14 unique exclusion lists needing 24 bytes
TCL: Running for 1500000 steps
ETITLE: TS BOND ANGLE DIHED IMPRP ELECT VDW BOUNDARY MISC KINETIC TOTAL TEMP POTENTIAL TOTALAVG TEMPAVG PRESSURE GPRESSURE VOLUME PRESSAVG GPRESSAVG
ENERGY: 0 0.1084 2.1517 0.1828 0.0000 -10762.6139 1423.1596 0.0000 0.0000 1729.9192 -7607.0922 291.5877 -9337.0114 -7607.0922 291.5877 -133.0808 -67.0583 30745.7172 -133.0808 -67.0583
ENERGY: 300000 1.8208 3.6070 0.3985 0.0000 -10797.2783 1458.8440 0.0000 0.0000 1778.8311 -7553.7769 299.8320 -9332.6080 -7574.1095 300.6962 -56.8715 12.8884 30876.7487 47.3587 100.7269
ENERGY: 600000 1.2281 6.6250 0.4359 0.0000 -10795.3438 1427.3020 0.0000 0.0000 1663.5253 -7696.2275 280.3966 -9359.7528 -7582.0090 297.8012 -410.6895 -367.3883 30855.6613 -163.5948 -111.6212
ENERGY: 900000 0.2621 5.0241 0.0925 0.0000 -10867.2229 1478.6617 0.0000 0.0000 1817.2071 -7565.9754 306.3005 -9383.1825 -7571.6120 301.0541 222.3592 258.2590 30647.8267 -79.4157 -28.8272
ENERGY: 1200000 0.0545 8.8416 0.7512 0.0000 -10735.3519 1365.6868 0.0000 0.0000 1789.1151 -7570.9026 301.5655 -9360.0177 -7569.9682 301.7115 -663.5367 -602.2381 30733.1680 -186.5566 -137.4922
ENERGY: 1500000 2.7154 3.0513 0.1614 0.0000 -10863.9695 1519.9432 0.0000 0.0000 1796.1202 -7541.9779 302.7462 -9338.0981 -7569.7107 301.2878 322.9130 398.7133 31404.9732 -93.7679 -40.5944
TCL: Running FEP window   2: Lambda1 0.95   Lambda2 0.8999999999999999 [dLambda -0.050000000000000044]
TCL: Setting parameter firsttimestep to 0
TCL: Setting parameter alchLambda to 0.95
Info: NONBONDED TABLE R-SQUARED SPACING: 0.0625
Info: NONBONDED TABLE SIZE: 705 POINTS
TCL: Setting parameter alchLambda2 to 0.8999999999999999
Info: NONBONDED TABLE R-SQUARED SPACING: 0.0625
Info: NONBONDED TABLE SIZE: 705 POINTS
TCL: Running for 1500000 steps
ETITLE: TS BOND ANGLE DIHED IMPRP ELECT VDW BOUNDARY MISC KINETIC TOTAL TEMP POTENTIAL TOTALAVG TEMPAVG PRESSURE GPRESSURE VOLUME PRESSAVG GPRESSAVG
ENERGY: 0 2.7154 3.0513 0.1614 0.0000 -10863.9651 1519.8693 0.0000 0.0000 1795.2074 -7542.9602 302.5924 -9338.1676 -7542.9602 302.5924 307.3563 389.0627 31404.9732 307.3563 389.0627
ENERGY: 300000 0.3671 5.5136 0.6759 0.0000 -10756.3897 1420.7787 0.0000 0.0000 1817.0039 -7512.0505 306.2663 -9329.0544 -7541.8007 302.6183 -156.6544 -120.7349 30673.6471 -202.3786 -135.6824
ENERGY: 600000 0.4829 4.7638 0.2934 0.0000 -10702.4236 1431.5946 0.0000 0.0000 1790.1162 -7475.1728 301.7342 -9265.2890 -7543.8502 302.0781 29.7994 125.5695 30786.5992 -93.8106 -25.4723
ENERGY: 900000 0.3347 2.6435 1.9106 0.0000 -10762.2986 1342.4275 0.0000 0.0000 1791.6546 -7623.3278 301.9935 -9414.9824 -7552.0914 301.5098 -1103.2632 -1080.9915 30957.1051 -122.0430 -65.9963
ENERGY: 1200000 0.0082 4.8310 1.0432 0.0000 -10969.2765 1537.1151 0.0000 0.0000 1798.5776 -7627.7013 303.1604 -9426.2789 -7566.2295 301.0852 146.8402 248.6982 31267.3035 -116.3109 -52.4209
ENERGY: 1500000 0.0434 3.9314 0.5270 0.0000 -10951.6321 1495.5502 0.0000 0.0000 1822.1298 -7629.4503 307.1303 -9451.5802 -7574.2339 301.2622 261.4584 360.2030 30193.8059 -53.7376 6.5910
TCL: Running FEP window   3: Lambda1 0.8999999999999999 Lambda2 0.8499999999999999 [dLambda -0.050000000000000044]
TCL: Setting parameter firsttimestep to 0
TCL: Setting parameter alchLambda to 0.8999999999999999
Info: NONBONDED TABLE R-SQUARED SPACING: 0.0625
Info: NONBONDED TABLE SIZE: 705 POINTS
TCL: Setting parameter alchLambda2 to 0.8499999999999999
Info: NONBONDED TABLE R-SQUARED SPACING: 0.0625
Info: NONBONDED TABLE SIZE: 705 POINTS
TCL: Running for 1500000 steps
ETITLE: TS BOND ANGLE DIHED IMPRP ELECT VDW BOUNDARY MISC KINETIC TOTAL TEMP POTENTIAL TOTALAVG TEMPAVG PRESSURE GPRESSURE VOLUME PRESSAVG GPRESSAVG
ENERGY: 0 0.0434 3.9314 0.5270 0.0000 -10951.6391 1495.7644 0.0000 0.0000 1821.2481 -7630.1248 306.9816 -9451.3728 -7630.1248 306.9816 278.3455 354.5924 30193.8059 278.3455 354.5924
ENERGY: 300000 0.7891 3.7445 0.3554 0.0000 -10866.7253 1400.2010 0.0000 0.0000 1728.7578 -7732.8777 291.3919 -9461.6355 -7627.1872 301.1878 -872.1263 -843.0332 30901.8046 -135.2806 -92.3975
ENERGY: 600000 0.5959 4.4157 1.7184 0.0000 -10755.3716 1428.8360 0.0000 0.0000 1833.6584 -7486.1472 309.0735 -9319.8056 -7595.5093 301.7938 -43.3773 -11.2372 30752.6697 -43.9894 -3.3975
ENERGY: 900000 0.9772 4.6686 1.6132 0.0000 -10764.9764 1443.0741 0.0000 0.0000 1709.9963 -7604.6471 288.2295 -9314.6434 -7600.0480 300.1268 -23.8907 7.5985 30922.8476 33.9134 74.0395
ENERGY: 1200000 0.5072 2.9243 2.8377 0.0000 -10884.6818 1456.8520 0.0000 0.0000 1839.0832 -7582.4773 309.9879 -9421.5605 -7596.5352 300.9471 -28.0501 56.6206 30509.8246 -18.8775 29.4706
ENERGY: 1500000 0.0727 3.6499 0.1976 0.0000 -10934.4070 1481.3385 0.0000 0.0000 1774.7146 -7674.4336 299.1382 -9449.1483 -7602.0196 300.7650 -228.4846 -194.9845 30920.0296 -119.3643 -74.4764
TCL: Running FEP window   4: Lambda1 0.8499999999999999 Lambda2 0.7999999999999998 [dLambda -0.050000000000000044]
TCL: Setting parameter firsttimestep to 0
TCL: Setting parameter alchLambda to 0.8499999999999999
Info: NONBONDED TABLE R-SQUARED SPACING: 0.0625
Info: NONBONDED TABLE SIZE: 705 POINTS
TCL: Setting parameter alchLambda2 to 0.7999999999999998
Info: NONBONDED TABLE R-SQUARED SPACING: 0.0625
Info: NONBONDED TABLE SIZE: 705 POINTS
TCL: Running for 1500000 steps
ETITLE: TS BOND ANGLE DIHED IMPRP ELECT VDW BOUNDARY MISC KINETIC TOTAL TEMP POTENTIAL TOTALAVG TEMPAVG PRESSURE GPRESSURE VOLUME PRESSAVG GPRESSAVG
ENERGY: 0 0.0727 3.6500 0.1976 0.0000 -10934.4167 1481.6763 0.0000 0.0000 1773.8482 -7674.9720 298.9921 -9448.8202 -7674.9720 298.9921 -284.6889 -198.7013 30920.0296 -284.6889 -198.7013
ENERGY: 300000 0.0367 4.0784 1.1402 0.0000 -10874.1484 1598.6502 0.0000 0.0000 1747.0855 -7523.1574 294.4811 -9270.2429 -7602.5920 296.1879 1402.4712 1466.3674 30533.4031 243.2314 330.7607
ENERGY: 600000 2.1961 3.4033 0.6605 0.0000 -10745.7052 1397.1317 0.0000 0.0000 1752.3987 -7589.9149 295.3767 -9342.3136 -7566.4598 298.5334 -671.3701 -620.8904 31019.7892 75.9364 139.2670
ENERGY: 900000 0.2488 5.0510 0.6101 0.0000 -10757.3490 1400.6284 0.0000 0.0000 1770.9660 -7579.8447 298.5063 -9350.8106 -7565.5440 298.9366 -533.9918 -463.9057 31017.8863 -61.1356 4.2773
ENERGY: 1200000 0.0339 3.9499 1.2504 0.0000 -10839.5824 1446.3768 0.0000 0.0000 1745.6550 -7642.3163 294.2400 -9387.9714 -7577.1641 298.4588 -294.3308 -163.2548 30870.6950 -44.1225 22.1648
ENERGY: 1500000 0.7198 6.6337 0.9508 0.0000 -10738.8842 1461.5796 0.0000 0.0000 1751.5697 -7517.4306 295.2370 -9269.0003 -7576.7703 298.6051 38.0352 154.2226 30796.2485 -51.0933 16.2225
TCL: Running FEP window   5: Lambda1 0.7999999999999998 Lambda2 0.7499999999999998 [dLambda -0.050000000000000044]
TCL: Setting parameter firsttimestep to 0
TCL: Setting parameter alchLambda to 0.7999999999999998
Info: NONBONDED TABLE R-SQUARED SPACING: 0.0625
Info: NONBONDED TABLE SIZE: 705 POINTS
TCL: Setting parameter alchLambda2 to 0.7499999999999998
Info: NONBONDED TABLE R-SQUARED SPACING: 0.0625
Info: NONBONDED TABLE SIZE: 705 POINTS
TCL: Running for 1500000 steps
ETITLE: TS BOND ANGLE DIHED IMPRP ELECT VDW BOUNDARY MISC KINETIC TOTAL TEMP POTENTIAL TOTALAVG TEMPAVG PRESSURE GPRESSURE VOLUME PRESSAVG GPRESSAVG
ENERGY: 0 0.7198 6.6337 0.9508 0.0000 -10738.8785 1461.1396 0.0000 0.0000 1750.6530 -7518.7816 295.0825 -9269.4346 -7518.7816 295.0825 54.1682 139.7640 30796.2485 54.1682 139.7640
ENERGY: 300000 0.0876 7.0124 1.9599 0.0000 -10807.6894 1431.6762 0.0000 0.0000 1838.2404 -7528.7129 309.8458 -9366.9533 -7555.1138 300.0071 -4.3933 4.1669 30366.0923 -181.9266 -153.0893
ENERGY: 600000 2.1377 5.6875 0.2563 0.0000 -10784.6686 1505.1672 0.0000 0.0000 1729.2639 -7542.1561 291.4772 -9271.4200 -7553.7023 300.4496 761.0143 786.8060 30658.0932 -125.9034 -81.1177
ENERGY: 900000 0.3332 3.2982 3.0439 0.0000 -10857.0389 1465.9169 0.0000 0.0000 1736.0393 -7648.4072 292.6192 -9384.4466 -7573.9290 299.3514 -115.5722 -64.3757 30760.4821 -115.4292 -69.2110
ENERGY: 1200000 0.6420 4.6958 0.3207 0.0000 -10855.7521 1459.4081 0.0000 0.0000 1797.9217 -7592.7638 303.0499 -9390.6855 -7564.9560 300.8975 232.3217 271.2652 30309.1665 -118.5465 -72.7706
ENERGY: 1500000 0.8122 6.6818 1.1471 0.0000 -10803.1448 1499.0453 0.0000 0.0000 1731.2845 -7564.1738 291.8178 -9295.4583 -7561.6461 300.2092 496.5717 548.0936 30716.5133 -94.2813 -45.1626
TCL: Running FEP window   6: Lambda1 0.7499999999999998 Lambda2 0.6999999999999997 [dLambda -0.050000000000000044]
TCL: Setting parameter firsttimestep to 0
TCL: Setting parameter alchLambda to 0.7499999999999998
Info: NONBONDED TABLE R-SQUARED SPACING: 0.0625
Info: NONBONDED TABLE SIZE: 705 POINTS
TCL: Setting parameter alchLambda2 to 0.6999999999999997
Info: NONBONDED TABLE R-SQUARED SPACING: 0.0625
Info: NONBONDED TABLE SIZE: 705 POINTS
TCL: Running for 1500000 steps
ETITLE: TS BOND ANGLE DIHED IMPRP ELECT VDW BOUNDARY MISC KINETIC TOTAL TEMP POTENTIAL TOTALAVG TEMPAVG PRESSURE GPRESSURE VOLUME PRESSAVG GPRESSAVG
ENERGY: 0 0.8122 6.6818 1.1471 0.0000 -10803.1483 1499.2471 0.0000 0.0000 1730.3949 -7564.8651 291.6678 -9295.2600 -7564.8651 291.6678 472.8336 543.0236 30716.5133 472.8336 543.0236
ENERGY: 300000 0.1665 4.4035 0.1422 0.0000 -10657.0236 1400.0876 0.0000 0.0000 1861.9491 -7390.2748 313.8420 -9252.2238 -7548.5368 299.3838 -373.4816 -288.6045 31179.0453 72.9625 154.6621
ENERGY: 600000 0.4526 2.4389 0.4166 0.0000 -10810.6466 1444.3594 0.0000 0.0000 1790.1774 -7572.8017 301.7445 -9362.9791 -7561.7559 298.9610 -10.5958 114.4575 30497.1809 50.5171 147.7947
ENERGY: 900000 0.1803 2.4538 0.8226 0.0000 -10740.4638 1418.9496 0.0000 0.0000 1734.0435 -7584.0140 292.2828 -9318.0575 -7565.5782 298.4231 -304.8540 -270.1702 31034.9932 44.6299 130.2411
ENERGY: 1200000 0.4645 2.3703 0.6778 0.0000 -10888.1794 1502.8537 0.0000 0.0000 1780.5087 -7601.3043 300.1148 -9381.8130 -7578.9547 298.2649 274.9957 263.4454 30733.6813 143.3304 219.3967
ENERGY: 1500000 0.5106 4.0248 1.5428 0.0000 -10874.7919 1512.5623 0.0000 0.0000 1766.5926 -7589.5588 297.7692 -9356.1514 -7587.1040 298.0274 327.6548 455.6869 30348.4732 149.2666 224.5411
TCL: Running FEP window   7: Lambda1 0.6999999999999997 Lambda2 0.6499999999999997 [dLambda -0.050000000000000044]
TCL: Setting parameter firsttimestep to 0
TCL: Setting parameter alchLambda to 0.6999999999999997
Info: NONBONDED TABLE R-SQUARED SPACING: 0.0625
Info: NONBONDED TABLE SIZE: 705 POINTS
TCL: Setting parameter alchLambda2 to 0.6499999999999997
Info: NONBONDED TABLE R-SQUARED SPACING: 0.0625
Info: NONBONDED TABLE SIZE: 705 POINTS
TCL: Running for 1500000 steps
ETITLE: TS BOND ANGLE DIHED IMPRP ELECT VDW BOUNDARY MISC KINETIC TOTAL TEMP POTENTIAL TOTALAVG TEMPAVG PRESSURE GPRESSURE VOLUME PRESSAVG GPRESSAVG
ENERGY: 0 0.5106 4.0248 1.5428 0.0000 -10874.8068 1512.7804 0.0000 0.0000 1765.7197 -7590.2285 297.6220 -9355.9483 -7590.2285 297.6220 361.9221 450.7277 30348.4732 361.9221 450.7277
ENERGY: 300000 0.7931 2.7612 0.0569 0.0000 -10901.9386 1520.7061 0.0000 0.0000 1824.8780 -7552.7434 307.5935 -9377.6214 -7563.1650 300.8049 599.3941 667.2369 30279.5639 373.7507 451.5076
ENERGY: 600000 0.3743 4.8500 0.8639 0.0000 -10907.0450 1468.4326 0.0000 0.0000 1769.4844 -7663.0398 298.2566 -9432.5242 -7603.5674 300.6452 237.1316 357.2626 29829.5175 343.5571 408.1726
ENERGY: 900000 1.3831 6.0004 0.5207 0.0000 -10837.2078 1426.5542 0.0000 0.0000 1782.4296 -7620.3197 300.4386 -9402.7493 -7606.1839 299.7260 -72.6454 -54.0936 30433.5589 108.5624 170.7248
ENERGY: 1200000 0.4111 4.5520 0.4244 0.0000 -10819.5528 1454.0274 0.0000 0.0000 1827.1862 -7532.9517 307.9826 -9360.1379 -7600.8589 300.8308 202.5302 296.8124 30450.6937 102.9577 160.9186
ENERGY: 1500000 0.2906 4.7862 0.5240 0.0000 -10852.3932 1462.1927 0.0000 0.0000 1728.1768 -7656.4229 291.2940 -9384.5997 -7601.3967 300.1000 -179.6120 -99.4935 30792.6837 32.9378 100.4331
TCL: Running FEP window   8: Lambda1 0.6499999999999997 Lambda2 0.5999999999999996 [dLambda -0.050000000000000044]
TCL: Setting parameter firsttimestep to 0
TCL: Setting parameter alchLambda to 0.6499999999999997
Info: NONBONDED TABLE R-SQUARED SPACING: 0.0625
Info: NONBONDED TABLE SIZE: 705 POINTS
TCL: Setting parameter alchLambda2 to 0.5999999999999996
Info: NONBONDED TABLE R-SQUARED SPACING: 0.0625
Info: NONBONDED TABLE SIZE: 705 POINTS
TCL: Running for 1500000 steps
ETITLE: TS BOND ANGLE DIHED IMPRP ELECT VDW BOUNDARY MISC KINETIC TOTAL TEMP POTENTIAL TOTALAVG TEMPAVG PRESSURE GPRESSURE VOLUME PRESSAVG GPRESSAVG
ENERGY: 0 0.2906 4.7862 0.5240 0.0000 -10852.4052 1462.6001 0.0000 0.0000 1727.2545 -7656.9498 291.1385 -9384.2043 -7656.9498 291.1385 -182.3206 -100.6179 30792.6837 -182.3206 -100.6179
ENERGY: 300000 1.3261 4.9930 0.4133 0.0000 -10789.8685 1427.5917 0.0000 0.0000 1788.1367 -7567.4077 301.4005 -9355.5444 -7574.1256 299.2854 -348.8772 -271.3901 30771.0641 -166.8639 -108.6310
ENERGY: 600000 0.8024 2.9941 0.6540 0.0000 -10609.2762 1341.7757 0.0000 0.0000 1747.0667 -7515.9833 294.4780 -9263.0500 -7542.1013 298.9924 -837.1924 -808.3714 31365.1333 -487.3695 -433.2239
ENERGY: 900000 1.5589 4.9586 1.4283 0.0000 -10885.6679 1476.0402 0.0000 0.0000 1790.9263 -7610.7555 301.8707 -9401.6818 -7567.6542 298.9384 -115.8136 5.1010 30493.6115 -373.7380 -317.6981
ENERGY: 1200000 1.1080 7.2695 0.1062 0.0000 -10949.1824 1539.2828 0.0000 0.0000 1827.5561 -7573.8597 308.0449 -9401.4158 -7580.6793 298.6244 385.7183 431.1384 30802.8144 -256.5645 -200.2353
ENERGY: 1500000 0.6309 3.4626 0.2602 0.0000 -10862.5557 1456.6422 0.0000 0.0000 1765.2236 -7636.3362 297.5384 -9401.5598 -7591.0276 298.2117 -81.2475 -12.3298 30404.2776 -171.3631 -113.0151
TCL: Running FEP window   9: Lambda1 0.5999999999999996 Lambda2 0.5499999999999996 [dLambda -0.050000000000000044]
TCL: Setting parameter firsttimestep to 0
TCL: Setting parameter alchLambda to 0.5999999999999996
Info: NONBONDED TABLE R-SQUARED SPACING: 0.0625
Info: NONBONDED TABLE SIZE: 705 POINTS
TCL: Setting parameter alchLambda2 to 0.5499999999999996
Info: NONBONDED TABLE R-SQUARED SPACING: 0.0625
Info: NONBONDED TABLE SIZE: 705 POINTS
TCL: Running for 1500000 steps
ETITLE: TS BOND ANGLE DIHED IMPRP ELECT VDW BOUNDARY MISC KINETIC TOTAL TEMP POTENTIAL TOTALAVG TEMPAVG PRESSURE GPRESSURE VOLUME PRESSAVG GPRESSAVG
ENERGY: 0 0.6309 3.4626 0.2602 0.0000 -10862.5697 1456.3985 0.0000 0.0000 1764.3572 -7637.4602 297.3924 -9401.8174 -7637.4602 297.3924 -90.8517 -17.0372 30404.2776 -90.8517 -17.0372
ENERGY: 300000 0.3655 5.4392 0.1096 0.0000 -10628.3168 1436.7393 0.0000 0.0000 1775.7397 -7409.9235 299.3110 -9185.6632 -7530.2911 297.7896 368.1079 432.5471 30703.0863 -173.2391 -84.6394
ENERGY: 600000 1.2073 6.3237 0.4327 0.0000 -10819.8820 1483.4773 0.0000 0.0000 1812.8910 -7515.5500 305.5730 -9328.4409 -7530.7046 300.0801 305.8727 330.0757 30661.0755 -225.5823 -144.7172
ENERGY: 900000 0.0700 5.7462 0.2420 0.0000 -10657.2960 1339.1060 0.0000 0.0000 1867.9482 -7444.1837 314.8532 -9312.1319 -7538.5122 300.9873 -520.8266 -474.4030 30534.2651 -238.0486 -168.7869
ENERGY: 1200000 0.3619 7.4240 0.8122 0.0000 -10839.7387 1465.4207 0.0000 0.0000 1752.2453 -7613.4744 295.3509 -9365.7198 -7544.9855 300.1089 -38.5057 -10.1176 30722.2272 -217.9018 -151.9829
ENERGY: 1500000 0.0376 5.3645 2.1931 0.0000 -10700.6517 1356.8028 0.0000 0.0000 1735.2761 -7600.9776 292.4906 -9336.2537 -7553.2009 298.9155 -697.1279 -731.9587 30656.8305 -215.0681 -155.2442
TCL: Running FEP window  10: Lambda1 0.5499999999999996 Lambda2 0.4999999999999996 [dLambda -0.04999999999999999]
TCL: Setting parameter firsttimestep to 0
TCL: Setting parameter alchLambda to 0.5499999999999996
Info: NONBONDED TABLE R-SQUARED SPACING: 0.0625
Info: NONBONDED TABLE SIZE: 705 POINTS
TCL: Setting parameter alchLambda2 to 0.4999999999999996
Info: NONBONDED TABLE R-SQUARED SPACING: 0.0625
Info: NONBONDED TABLE SIZE: 705 POINTS
TCL: Running for 1500000 steps
ETITLE: TS BOND ANGLE DIHED IMPRP ELECT VDW BOUNDARY MISC KINETIC TOTAL TEMP POTENTIAL TOTALAVG TEMPAVG PRESSURE GPRESSURE VOLUME PRESSAVG GPRESSAVG
ENERGY: 0 0.0376 5.3645 2.1931 0.0000 -10700.6822 1356.9294 0.0000 0.0000 1734.3966 -7601.7612 292.3423 -9336.1577 -7601.7612 292.3423 -805.4120 -733.6767 30656.8305 -805.4120 -733.6767
ENERGY: 300000 0.2413 2.7206 2.2376 0.0000 -10874.8531 1508.9839 0.0000 0.0000 1753.8582 -7606.8115 295.6227 -9360.6697 -7556.2283 297.3429 106.2873 226.3453 30797.7277 -47.7459 12.7211
ENERGY: 600000 0.0610 8.7910 1.5344 0.0000 -10767.4594 1423.6759 0.0000 0.0000 1777.0612 -7556.3359 299.5337 -9333.3971 -7574.9459 296.3334 -343.0787 -268.8874 31057.4210 -113.2894 -49.3576
ENERGY: 900000 0.0662 5.0833 0.2652 0.0000 -10776.8394 1421.0888 0.0000 0.0000 1779.1521 -7571.1838 299.8861 -9350.3359 -7569.2700 297.4387 -423.1459 -321.1130 30928.4355 -67.9281 -8.8730
ENERGY: 1200000 0.6611 2.5488 1.4981 0.0000 -10678.2487 1384.3784 0.0000 0.0000 1742.6865 -7546.4758 293.7397 -9289.1623 -7570.4001 297.7427 -494.1718 -414.9961 30877.6571 -94.9017 -32.2436
ENERGY: 1500000 0.3401 2.6034 0.1150 0.0000 -10818.6945 1403.3409 0.0000 0.0000 1782.9271 -7629.3680 300.5224 -9412.2951 -7580.2298 297.9273 -754.2587 -632.0097 30889.3758 -96.7540 -24.7731
TCL: Running FEP window  11: Lambda1 0.4999999999999996 Lambda2 0.4499999999999996 [dLambda -0.04999999999999999]
TCL: Setting parameter firsttimestep to 0
TCL: Setting parameter alchLambda to 0.4999999999999996
Info: NONBONDED TABLE R-SQUARED SPACING: 0.0625
Info: NONBONDED TABLE SIZE: 705 POINTS
TCL: Setting parameter alchLambda2 to 0.4499999999999996
Info: NONBONDED TABLE R-SQUARED SPACING: 0.0625
Info: NONBONDED TABLE SIZE: 705 POINTS
TCL: Running for 1500000 steps
ETITLE: TS BOND ANGLE DIHED IMPRP ELECT VDW BOUNDARY MISC KINETIC TOTAL TEMP POTENTIAL TOTALAVG TEMPAVG PRESSURE GPRESSURE VOLUME PRESSAVG GPRESSAVG
ENERGY: 0 0.3401 2.6034 0.1150 0.0000 -10818.6851 1403.4102 0.0000 0.0000 1782.0482 -7630.1682 300.3743 -9412.2164 -7630.1682 300.3743 -737.3578 -635.2836 30889.3758 -737.3578 -635.2836
ENERGY: 300000 0.2259 5.7233 0.9566 0.0000 -10832.4337 1390.6320 0.0000 0.0000 1786.0280 -7648.8679 301.0451 -9434.8959 -7599.6353 300.3838 -557.6688 -444.9440 30236.0889 -368.5638 -268.2573
ENERGY: 600000 0.2166 3.1561 0.2142 0.0000 -10782.9628 1428.4477 0.0000 0.0000 1758.0810 -7592.8472 296.3345 -9350.9282 -7592.0661 299.4782 -124.0718 -119.0126 30793.1241 -294.2473 -219.4488
ENERGY: 900000 0.1967 3.1656 1.9997 0.0000 -10747.8845 1402.1706 0.0000 0.0000 1793.4058 -7546.9460 302.2887 -9340.3518 -7583.0731 299.8240 -325.1172 -236.2665 30399.0359 -177.0062 -99.9691
ENERGY: 1200000 0.2187 6.3593 0.4714 0.0000 -10780.4068 1443.9820 0.0000 0.0000 1743.5611 -7585.8143 293.8871 -9329.3754 -7589.5975 299.3763 -90.3845 -25.8360 30854.7925 -41.8808 28.8322
ENERGY: 1500000 1.4274 4.4260 0.4468 0.0000 -10721.7856 1415.8699 0.0000 0.0000 1760.9890 -7538.6266 296.8246 -9299.6156 -7581.8566 299.2300 -50.3027 -7.9452 30531.0255 -7.9871 57.8263
TCL: Running FEP window  12: Lambda1 0.4499999999999996 Lambda2 0.39999999999999963 [dLambda -0.04999999999999999]
TCL: Setting parameter firsttimestep to 0
TCL: Setting parameter alchLambda to 0.4499999999999996
Info: NONBONDED TABLE R-SQUARED SPACING: 0.0625
Info: NONBONDED TABLE SIZE: 705 POINTS
TCL: Setting parameter alchLambda2 to 0.39999999999999963
Info: NONBONDED TABLE R-SQUARED SPACING: 0.0625
Info: NONBONDED TABLE SIZE: 705 POINTS
TCL: Running for 1500000 steps
ETITLE: TS BOND ANGLE DIHED IMPRP ELECT VDW BOUNDARY MISC KINETIC TOTAL TEMP POTENTIAL TOTALAVG TEMPAVG PRESSURE GPRESSURE VOLUME PRESSAVG GPRESSAVG
ENERGY: 0 1.4274 4.4260 0.4468 0.0000 -10721.7870 1415.9886 0.0000 0.0000 1760.1004 -7539.3979 296.6749 -9299.4983 -7539.3979 296.6749 -80.6973 -10.9654 30531.0255 -80.6973 -10.9654
ENERGY: 300000 0.8041 2.9536 0.4551 0.0000 -10904.1951 1515.9498 0.0000 0.0000 1819.0446 -7564.9880 306.6102 -9384.0326 -7541.7737 302.1390 402.3389 482.2553 30308.4532 441.9879 490.7888
ENERGY: 600000 0.1947 5.4000 0.0963 0.0000 -10753.4948 1432.6345 0.0000 0.0000 1777.0035 -7538.1658 299.5240 -9315.1693 -7551.3808 302.1604 -195.1248 -191.7302 31107.0233 245.6640 285.3303
ENERGY: 900000 0.1015 3.9005 0.1002 0.0000 -10904.2198 1504.0770 0.0000 0.0000 1775.2697 -7620.7709 299.2317 -9396.0406 -7575.6842 300.8112 492.9122 557.3566 30219.1314 238.4186 290.1523
ENERGY: 1200000 0.4953 4.5929 0.2503 0.0000 -10651.1116 1382.4981 0.0000 0.0000 1779.8040 -7483.4710 299.9960 -9263.2750 -7583.0098 300.0183 -201.7599 -185.8072 30607.4652 184.5410 237.3406
ENERGY: 1500000 0.9285 4.9487 0.1471 0.0000 -10890.2612 1482.6366 0.0000 0.0000 1777.0240 -7624.5762 299.5274 -9401.6003 -7584.4981 300.7781 190.9839 298.3193 30400.9226 71.2948 132.5589
TCL: Running FEP window  13: Lambda1 0.39999999999999963 Lambda2 0.34999999999999964 [dLambda -0.04999999999999999]
TCL: Setting parameter firsttimestep to 0
TCL: Setting parameter alchLambda to 0.39999999999999963
Info: NONBONDED TABLE R-SQUARED SPACING: 0.0625
Info: NONBONDED TABLE SIZE: 705 POINTS
TCL: Setting parameter alchLambda2 to 0.34999999999999964
Info: NONBONDED TABLE R-SQUARED SPACING: 0.0625
Info: NONBONDED TABLE SIZE: 705 POINTS
TCL: Running for 1500000 steps
ETITLE: TS BOND ANGLE DIHED IMPRP ELECT VDW BOUNDARY MISC KINETIC TOTAL TEMP POTENTIAL TOTALAVG TEMPAVG PRESSURE GPRESSURE VOLUME PRESSAVG GPRESSAVG
ENERGY: 0 0.9285 4.9487 0.1471 0.0000 -10890.2609 1482.1925 0.0000 0.0000 1776.1507 -7625.8935 299.3802 -9402.0441 -7625.8935 299.3802 218.7863 291.6299 30400.9226 218.7863 291.6299
ENERGY: 300000 0.3351 6.0404 0.3009 0.0000 -10912.0995 1504.1025 0.0000 0.0000 1740.5508 -7660.7698 293.3797 -9401.3206 -7618.4703 299.0934 435.3024 525.7780 30185.4842 -219.0189 -153.2308
ENERGY: 600000 0.1422 3.7377 1.2713 0.0000 -10913.6630 1503.3354 0.0000 0.0000 1825.4589 -7579.7175 307.6914 -9405.1764 -7584.5843 301.6749 150.8462 248.1032 30632.1379 -216.8882 -146.7934
ENERGY: 900000 0.9425 2.8850 0.3091 0.0000 -10861.3266 1489.5650 0.0000 0.0000 1731.3643 -7636.2607 291.8312 -9367.6250 -7599.7456 299.8214 -36.7334 34.9330 30869.0241 -244.1978 -182.6047
ENERGY: 1200000 0.0144 5.2902 0.1420 0.0000 -10760.5801 1415.4995 0.0000 0.0000 1770.9606 -7568.6733 298.5054 -9339.6340 -7588.9949 300.3966 -42.5437 54.3258 30348.2190 -157.0016 -88.7052
ENERGY: 1500000 0.9357 4.9820 0.4403 0.0000 -10824.2371 1416.9870 0.0000 0.0000 1751.2506 -7649.6415 295.1832 -9400.8921 -7591.3257 300.7980 -430.1960 -308.8070 30611.1383 -172.1931 -102.2213
TCL: Running FEP window  14: Lambda1 0.34999999999999964 Lambda2 0.29999999999999966 [dLambda -0.04999999999999999]
TCL: Setting parameter firsttimestep to 0
TCL: Setting parameter alchLambda to 0.34999999999999964
Info: NONBONDED TABLE R-SQUARED SPACING: 0.0625
Info: NONBONDED TABLE SIZE: 705 POINTS
TCL: Setting parameter alchLambda2 to 0.29999999999999966
Info: NONBONDED TABLE R-SQUARED SPACING: 0.0625
Info: NONBONDED TABLE SIZE: 705 POINTS
TCL: Running for 1500000 steps
ETITLE: TS BOND ANGLE DIHED IMPRP ELECT VDW BOUNDARY MISC KINETIC TOTAL TEMP POTENTIAL TOTALAVG TEMPAVG PRESSURE GPRESSURE VOLUME PRESSAVG GPRESSAVG
ENERGY: 0 0.9357 4.9820 0.4403 0.0000 -10824.2376 1417.2409 0.0000 0.0000 1750.3927 -7650.2459 295.0386 -9400.6386 -7650.2459 295.0386 -383.7969 -311.0577 30611.1383 -383.7969 -311.0577
ENERGY: 300000 0.7898 1.5978 1.6263 0.0000 -10832.1873 1492.2841 0.0000 0.0000 1777.3867 -7558.5028 299.5886 -9335.8894 -7620.8895 295.6374 399.0092 456.8036 30480.7683 7.2865 89.3055
ENERGY: 600000 0.4454 3.7827 0.1671 0.0000 -10720.8173 1348.6092 0.0000 0.0000 1792.3188 -7575.4940 302.1055 -9367.8128 -7580.8743 299.9080 -848.9945 -841.0828 30832.0095 -44.0176 22.8670
ENERGY: 900000 0.0437 4.8434 0.0798 0.0000 -10788.7698 1464.0675 0.0000 0.0000 1772.6753 -7547.0601 298.7944 -9319.7353 -7581.8805 299.8514 48.4909 214.6984 30631.0493 132.0994 199.6879
ENERGY: 1200000 0.3856 6.7939 0.2629 0.0000 -10862.5371 1458.2811 0.0000 0.0000 1755.6356 -7641.1781 295.9223 -9396.8137 -7597.4796 298.5948 -105.6929 -34.6827 30358.2812 4.4633 69.3647
ENERGY: 1500000 0.2160 9.2025 0.2986 0.0000 -10813.6122 1438.0148 0.0000 0.0000 1751.7163 -7614.1641 295.2617 -9365.8804 -7599.0354 298.4412 -254.0620 -137.0372 30550.2936 -66.1827 4.7818
TCL: Running FEP window  15: Lambda1 0.29999999999999966 Lambda2 0.24999999999999967 [dLambda -0.04999999999999999]
TCL: Setting parameter firsttimestep to 0
TCL: Setting parameter alchLambda to 0.29999999999999966
Info: NONBONDED TABLE R-SQUARED SPACING: 0.0625
Info: NONBONDED TABLE SIZE: 705 POINTS
TCL: Setting parameter alchLambda2 to 0.24999999999999967
Info: NONBONDED TABLE R-SQUARED SPACING: 0.0625
Info: NONBONDED TABLE SIZE: 705 POINTS
TCL: Running for 1500000 steps
ETITLE: TS BOND ANGLE DIHED IMPRP ELECT VDW BOUNDARY MISC KINETIC TOTAL TEMP POTENTIAL TOTALAVG TEMPAVG PRESSURE GPRESSURE VOLUME PRESSAVG GPRESSAVG
ENERGY: 0 0.2160 9.2025 0.2986 0.0000 -10813.6132 1438.1519 0.0000 0.0000 1750.8143 -7614.9300 295.1096 -9365.7443 -7614.9300 295.1096 -225.6854 -140.3771 30550.2936 -225.6854 -140.3771
ENERGY: 300000 0.0876 5.7231 1.3428 0.0000 -10793.3583 1394.3701 0.0000 0.0000 1824.6618 -7567.1730 307.5571 -9391.8348 -7594.2879 303.4181 -711.2469 -621.3731 30964.3572 -183.9028 -112.5975
ENERGY: 600000 0.6454 5.3691 0.8295 0.0000 -10772.8566 1364.7995 0.0000 0.0000 1785.6074 -7615.6058 300.9742 -9401.2131 -7594.7951 302.9746 -1059.5882 -943.9474 31180.9722 -276.7229 -202.6451
ENERGY: 900000 1.1060 2.4038 0.1380 0.0000 -10810.8246 1428.9131 0.0000 0.0000 1759.0960 -7619.1677 296.5056 -9378.2637 -7589.4321 301.3571 -507.4238 -487.7393 30937.9326 -169.9271 -106.9950
ENERGY: 1200000 0.8197 4.5870 0.2867 0.0000 -10683.8151 1392.8239 0.0000 0.0000 1769.8690 -7515.4287 298.3214 -9285.2977 -7583.5423 300.4828 -338.6145 -337.4826 30730.9805 -126.4921 -71.5929
ENERGY: 1500000 0.6035 3.2420 1.5572 0.0000 -10816.8485 1431.5801 0.0000 0.0000 1788.2792 -7591.5865 301.4246 -9379.8657 -7583.5556 300.1868 -239.1838 -205.2725 30831.5591 -138.4570 -84.4380
TCL: Running FEP window  16: Lambda1 0.24999999999999967 Lambda2 0.19999999999999968 [dLambda -0.04999999999999999]
TCL: Setting parameter firsttimestep to 0
TCL: Setting parameter alchLambda to 0.24999999999999967
Info: NONBONDED TABLE R-SQUARED SPACING: 0.0625
Info: NONBONDED TABLE SIZE: 705 POINTS
TCL: Setting parameter alchLambda2 to 0.19999999999999968
Info: NONBONDED TABLE R-SQUARED SPACING: 0.0625
Info: NONBONDED TABLE SIZE: 705 POINTS
TCL: Running for 1500000 steps
ETITLE: TS BOND ANGLE DIHED IMPRP ELECT VDW BOUNDARY MISC KINETIC TOTAL TEMP POTENTIAL TOTALAVG TEMPAVG PRESSURE GPRESSURE VOLUME PRESSAVG GPRESSAVG
ENERGY: 0 0.6035 3.2420 1.5572 0.0000 -10816.8479 1431.6643 0.0000 0.0000 1787.3840 -7592.3968 301.2737 -9379.7809 -7592.3968 301.2737 -281.4376 -204.2974 30831.5591 -281.4376 -204.2974
ENERGY: 300000 0.2781 1.9777 0.4400 0.0000 -10670.6288 1354.6799 0.0000 0.0000 1781.2765 -7531.9766 300.2442 -9313.2531 -7559.8225 300.5646 -702.3490 -627.0705 30608.9241 -526.5839 -453.7043
ENERGY: 600000 0.8818 4.6310 0.4946 0.0000 -10928.0261 1528.8270 0.0000 0.0000 1804.9759 -7588.2159 304.2389 -9393.1918 -7576.3083 298.7390 542.5363 617.6415 30274.0916 -214.9956 -150.4546
ENERGY: 900000 0.1224 6.4947 0.2131 0.0000 -10699.2031 1415.5761 0.0000 0.0000 1757.7609 -7519.0359 296.2805 -9276.7968 -7569.2358 298.6174 -278.3362 -209.1603 30970.6696 -194.1808 -116.1977
ENERGY: 1200000 0.5618 2.4070 0.1128 0.0000 -10771.6247 1469.7896 0.0000 0.0000 1765.4221 -7533.3314 297.5719 -9298.7536 -7572.2370 298.8952 448.5194 474.0410 30318.9685 -114.6477 -40.6424
ENERGY: 1500000 1.1767 4.3324 0.2204 0.0000 -10777.9544 1437.4965 0.0000 0.0000 1726.9831 -7607.7454 291.0928 -9334.7284 -7575.9988 298.1005 14.1025 99.1610 30280.0553 -81.6157 -9.4241
TCL: Running FEP window  17: Lambda1 0.19999999999999968 Lambda2 0.1499999999999997 [dLambda -0.04999999999999999]
TCL: Setting parameter firsttimestep to 0
TCL: Setting parameter alchLambda to 0.19999999999999968
Info: NONBONDED TABLE R-SQUARED SPACING: 0.0625
Info: NONBONDED TABLE SIZE: 705 POINTS
TCL: Setting parameter alchLambda2 to 0.1499999999999997
Info: NONBONDED TABLE R-SQUARED SPACING: 0.0625
Info: NONBONDED TABLE SIZE: 705 POINTS
TCL: Running for 1500000 steps
ETITLE: TS BOND ANGLE DIHED IMPRP ELECT VDW BOUNDARY MISC KINETIC TOTAL TEMP POTENTIAL TOTALAVG TEMPAVG PRESSURE GPRESSURE VOLUME PRESSAVG GPRESSAVG
ENERGY: 0 1.1767 4.3324 0.2204 0.0000 -10777.9536 1437.5278 0.0000 0.0000 1726.1037 -7608.5927 290.9445 -9334.6964 -7608.5927 290.9445 14.8560 98.2611 30280.0553 14.8560 98.2611
ENERGY: 300000 0.4350 2.7431 0.7730 0.0000 -10832.0848 1474.5074 0.0000 0.0000 1795.1056 -7558.5205 302.5752 -9353.6262 -7585.0647 298.5057 -102.9395 -35.8851 31067.3495 -205.5723 -129.0638
ENERGY: 600000 0.0197 5.3615 0.0986 0.0000 -10797.5765 1442.2766 0.0000 0.0000 1759.0374 -7590.7827 296.4957 -9349.8201 -7593.8707 298.1913 -6.4633 41.0821 30485.7043 -175.6742 -106.4091
ENERGY: 900000 1.4446 1.9299 0.6347 0.0000 -10795.8994 1519.2014 0.0000 0.0000 1723.4170 -7549.2716 290.4917 -9272.6886 -7594.9759 296.2001 706.8194 786.1140 30423.3055 -151.2470 -89.4482
ENERGY: 1200000 0.3187 2.4521 0.0321 0.0000 -10696.5397 1420.6110 0.0000 0.0000 1779.3546 -7493.7711 299.9203 -9273.1258 -7582.9439 297.3084 -180.6685 -112.2580 30884.7121 -116.9284 -53.3441
ENERGY: 1500000 0.2508 2.3813 0.6337 0.0000 -10810.0776 1457.5452 0.0000 0.0000 1806.3233 -7542.9433 304.4660 -9349.2666 -7586.4026 297.6440 -107.3913 19.0725 30610.5300 -98.8393 -29.7316
TCL: Running FEP window  18: Lambda1 0.1499999999999997 Lambda2 0.09999999999999969 [dLambda -0.05 ]
TCL: Setting parameter firsttimestep to 0
TCL: Setting parameter alchLambda to 0.1499999999999997
Info: NONBONDED TABLE R-SQUARED SPACING: 0.0625
Info: NONBONDED TABLE SIZE: 705 POINTS
TCL: Setting parameter alchLambda2 to 0.09999999999999969
Info: NONBONDED TABLE R-SQUARED SPACING: 0.0625
Info: NONBONDED TABLE SIZE: 705 POINTS
TCL: Running for 1500000 steps
ETITLE: TS BOND ANGLE DIHED IMPRP ELECT VDW BOUNDARY MISC KINETIC TOTAL TEMP POTENTIAL TOTALAVG TEMPAVG PRESSURE GPRESSURE VOLUME PRESSAVG GPRESSAVG
ENERGY: 0 0.2508 2.3813 0.6337 0.0000 -10810.0765 1457.5200 0.0000 0.0000 1805.4594 -7543.8313 304.3204 -9349.2907 -7543.8313 304.3204 -65.6146 19.4138 30610.5300 -65.6146 19.4138
ENERGY: 300000 0.0772 3.9333 0.3057 0.0000 -10851.4082 1467.4057 0.0000 0.0000 1761.0718 -7618.6145 296.8386 -9379.6863 -7563.0403 299.3842 19.0391 128.1789 30550.8338 -184.7223 -112.8833
ENERGY: 600000 0.6113 4.1297 0.8893 0.0000 -10828.0623 1379.9749 0.0000 0.0000 1794.0971 -7648.3600 302.4052 -9442.4570 -7587.9799 297.3050 -846.1067 -762.3773 30725.6804 -278.5131 -207.4830
ENERGY: 900000 1.5846 5.5023 0.9831 0.0000 -10810.6544 1400.9292 0.0000 0.0000 1802.8617 -7598.7935 303.8825 -9401.6552 -7595.8676 297.9682 -432.0478 -365.9769 30383.7123 -160.5581 -91.6891
ENERGY: 1200000 0.3359 3.0579 0.0876 0.0000 -10717.0413 1398.5819 0.0000 0.0000 1760.6863 -7554.2916 296.7736 -9314.9779 -7582.0447 299.0074 -236.4075 -193.8426 30387.5263 -195.4736 -129.9657
ENERGY: 1500000 1.2740 2.6687 0.4746 0.0000 -10857.4894 1472.3021 0.0000 0.0000 1790.2400 -7590.5300 301.7551 -9380.7700 -7583.9954 299.3852 -120.3345 -7.7489 30785.9613 -177.8042 -107.1609
TCL: Running FEP window  19: Lambda1 0.09999999999999969 Lambda2 0.049999999999999684 [dLambda -0.05 ]
TCL: Setting parameter firsttimestep to 0
TCL: Setting parameter alchLambda to 0.09999999999999969
Info: NONBONDED TABLE R-SQUARED SPACING: 0.0625
Info: NONBONDED TABLE SIZE: 705 POINTS
TCL: Setting parameter alchLambda2 to 0.049999999999999684
Info: NONBONDED TABLE R-SQUARED SPACING: 0.0625
Info: NONBONDED TABLE SIZE: 705 POINTS
TCL: Running for 1500000 steps
ETITLE: TS BOND ANGLE DIHED IMPRP ELECT VDW BOUNDARY MISC KINETIC TOTAL TEMP POTENTIAL TOTALAVG TEMPAVG PRESSURE GPRESSURE VOLUME PRESSAVG GPRESSAVG
ENERGY: 0 1.2740 2.6687 0.4746 0.0000 -10857.4900 1472.3757 0.0000 0.0000 1789.3171 -7591.3798 301.5995 -9380.6970 -7591.3798 301.5995 -96.5027 -9.4591 30785.9613 -96.5027 -9.4591
ENERGY: 300000 1.7984 7.6470 0.4244 0.0000 -10889.4408 1529.0048 0.0000 0.0000 1863.2818 -7487.2843 314.0667 -9350.5661 -7547.6239 307.4428 739.8505 806.4345 30507.6533 7.0153 84.5445
ENERGY: 600000 1.2957 3.1898 0.8204 0.0000 -10842.1665 1411.6943 0.0000 0.0000 1712.7872 -7712.3791 288.7000 -9425.1663 -7591.3041 302.8343 -527.9434 -427.5864 30560.7820 165.1858 233.5043
ENERGY: 900000 0.2012 6.4307 0.5735 0.0000 -10767.4059 1404.2971 0.0000 0.0000 1776.9280 -7578.9754 299.5113 -9355.9034 -7581.2676 300.9186 -513.3582 -462.3167 30587.0187 11.3482 77.3040
ENERGY: 1200000 0.5139 2.8460 0.4290 0.0000 -10878.4487 1471.7209 0.0000 0.0000 1793.0368 -7609.9020 302.2265 -9402.9389 -7595.5254 299.8913 92.7407 115.8975 30394.0231 -39.3531 32.5937
ENERGY: 1500000 0.4771 4.7809 0.4701 0.0000 -10765.2137 1392.3210 0.0000 0.0000 1775.0288 -7592.1358 299.1911 -9367.1646 -7589.5887 299.9063 -476.1058 -454.4376 30650.9458 -66.0767 0.4063
TCL: Running FEP window  20: Lambda1 0.049999999999999684 Lambda2 0.0    [dLambda -0.049999999999999684]
TCL: Setting parameter firsttimestep to 0
TCL: Setting parameter alchLambda to 0.049999999999999684
Info: NONBONDED TABLE R-SQUARED SPACING: 0.0625
Info: NONBONDED TABLE SIZE: 705 POINTS
TCL: Setting parameter alchLambda2 to 0.0
Info: NONBONDED TABLE R-SQUARED SPACING: 0.0625
Info: NONBONDED TABLE SIZE: 705 POINTS
TCL: Running for 1500000 steps
ETITLE: TS BOND ANGLE DIHED IMPRP ELECT VDW BOUNDARY MISC KINETIC TOTAL TEMP POTENTIAL TOTALAVG TEMPAVG PRESSURE GPRESSURE VOLUME PRESSAVG GPRESSAVG
ENERGY: 0 0.4771 4.7809 0.4701 0.0000 -10765.2151 1391.9876 0.0000 0.0000 1774.1440 -7593.3553 299.0420 -9367.4993 -7593.3553 299.0420 -534.6958 -459.1985 30650.9458 -534.6958 -459.1985
ENERGY: 300000 0.3012 1.5434 0.0373 0.0000 -10886.7274 1503.8864 0.0000 0.0000 1777.5514 -7603.4078 299.6163 -9380.9591 -7596.4021 303.9550 279.7500 321.9367 30672.6448 -192.9706 -121.4409
ENERGY: 600000 0.0768 5.7614 1.4272 0.0000 -11039.6256 1575.7498 0.0000 0.0000 1750.4203 -7706.1902 295.0432 -9456.6105 -7589.7006 303.2700 934.1943 914.1580 30020.4463 -89.4168 -31.0352
ENERGY: 900000 1.1331 1.9681 0.6369 0.0000 -10823.0331 1464.9845 0.0000 0.0000 1822.2029 -7532.1075 307.1426 -9354.3104 -7581.9908 302.4065 89.2414 88.3102 30513.3865 -163.4568 -103.1822
ENERGY: 1200000 2.1971 2.0013 0.7415 0.0000 -10823.6991 1484.7687 0.0000 0.0000 1732.5653 -7601.4253 292.0337 -9333.9906 -7580.6519 300.8086 35.2739 87.4148 30937.8233 -27.9551 29.9537
ENERGY: 1500000 0.7973 5.4853 0.2645 0.0000 -10907.9215 1463.3610 0.0000 0.0000 1823.8163 -7614.1971 307.4145 -9438.0134 -7582.7257 301.6347 -256.0638 -155.6803 30467.0749 19.6062 73.4946
TCL: Exiting due to exit command.
