Info: SIMULATION PARAMETERS:
Info: TIMESTEP               2
Info: NUMBER OF STEPS        0
Info: STEPS PER CYCLE        10
Info: PERIODIC CELL BASIS 1  31.9745 0 0
Info: PERIODIC CELL BASIS 2  0 31.2078 0
Info: PERIODIC CELL BASIS 3  0 0 30.3794
Info: PERIODIC CELL CENTER   0 0 0
Info: WRAPPING WATERS AROUND PERIODIC BOUNDARIES ON OUTPUT.
Info: WRAPPING ALL CLUSTERS AROUND PERIODIC BOUNDARIES ON OUTPUT.
Info: FIRST LDB TIMESTEP     50
Info: LAST LDB TIMESTEP     -1
Info: HOM BACKGROUND SCALING 1
Info: PME BACKGROUND SCALING 1
Info: MIN ATOMS PER PATCH    40
Info: EMPTY PATCH LOAD       40 ATOMS
Info: VELOCITY FILE          mobley_5499659_equil.vel
Info: CENTER OF MASS MOVING INITIALLY? NO
Info: DIELECTRIC             1
Info: EXCLUDE                SCALED ONE-FOUR
Info: 1-4 ELECTROSTATICS SCALED BY 0.833333
Info: MODIFIED 1-4 VDW PARAMETERS WILL BE USED
Info: DCD FILENAME           mobley_5499659_prod.dcd
Info: DCD FREQUENCY          100000
Info: DCD FIRST STEP         100000
Info: DCD FILE WILL CONTAIN UNIT CELL DATA
Info: XST FILENAME           mobley_5499659_prod.xst
Info: XST FREQUENCY          100000
Info: NO VELOCITY DCD OUTPUT
Info: NO FORCE DCD OUTPUT
Info: OUTPUT FILENAME        mobley_5499659_prod
Info: BINARY OUTPUT FILES WILL BE USED
Info: RESTART FILENAME       mobley_5499659_prod.restart
Info: RESTART FREQUENCY      100000
Info: BINARY RESTART FILES WILL BE USED
Info: CUTOFF                 9
Info: PAIRLIST DISTANCE      11
Info: PAIRLIST SHRINK RATE   0.01
Info: PAIRLIST GROW RATE     0.01
Info: PAIRLIST TRIGGER       0.3
Info: PAIRLISTS PER CYCLE    2
Info: PAIRLISTS ENABLED
Info: MARGIN                 2
Info: HYDROGEN GROUP CUTOFF  2.5
Info: PATCH DIMENSION        15.5
Info: ENERGY OUTPUT STEPS    100000
Info: ENERGY EVALUATION STEPS    100000
Info: OUTPUT ENERGY PRECISION 4
Info: CROSSTERM ENERGY INCLUDED IN DIHEDRAL
Info: TIMING OUTPUT STEPS    1000000
Info: PRESSURE OUTPUT STEPS  100000
Info: ALCHEMICAL FEP ON
Info: FEP CURRENT LAMBDA VALUE     0
Info: FEP COMPARISON LAMBDA VALUE  0.05
Info: FEP INTRA-ALCHEMICAL NON-BONDED INTERACTIONS WILL BE RETAINED
Info: FEP INTRA-ALCHEMICAL BONDED INTERACTIONS WILL BE RETAINED
Info: FEP VDW SHIFTING COEFFICIENT 5
Info: FEP ELEC. ACTIVE FOR ANNIHILATED PARTICLES BETWEEN LAMBDA = 0 AND LAMBDA = 0.5
Info: FEP ELEC. ACTIVE FOR EXNIHILATED PARTICLES BETWEEN LAMBDA = 0.5 AND LAMBDA = 1
Info: FEP VDW ACTIVE FOR ANNIHILATED PARTICLES BETWEEN LAMBDA = 0 AND LAMBDA = 1
Info: FEP VDW ACTIVE FOR EXNIHILATED PARTICLES BETWEEN LAMBDA = 0 AND LAMBDA = 1
Info: FEP BOND ACTIVE FOR ANNIHILATED PARTICLES BETWEEN LAMBDA = 1 AND LAMBDA = 1
Info: FEP BOND ACTIVE FOR EXNIHILATED PARTICLES BETWEEN LAMBDA = 0 AND LAMBDA = 0
Info: LANGEVIN DYNAMICS ACTIVE
Info: LANGEVIN TEMPERATURE   300
Info: LANGEVIN USING BBK INTEGRATOR
Info: LANGEVIN DAMPING COEFFICIENT IS 1 INVERSE PS
Info: LANGEVIN DYNAMICS APPLIED TO HYDROGENS
Info: LANGEVIN PISTON PRESSURE CONTROL ACTIVE
Info:        TARGET PRESSURE IS 1.01325 BAR
Info:     OSCILLATION PERIOD IS 50 FS
Info:             DECAY TIME IS 25 FS
Info:     PISTON TEMPERATURE IS 300 K
Info:       PRESSURE CONTROL IS GROUP-BASED
Info:    INITIAL STRAIN RATE IS 0.00017095 0.00017095 0.00017095
Info:       CELL FLUCTUATION IS ISOTROPIC
Info: PARTICLE MESH EWALD (PME) ACTIVE
Info: PME TOLERANCE               1e-06
Info: PME EWALD COEFFICIENT       0.348832
Info: PME INTERPOLATION ORDER     4
Info: PME GRID DIMENSIONS         32 32 32
Info: PME MAXIMUM GRID SPACING    1
Info: PME CALCULATION WILL BE PERFORMED ON GPU
Info: FULL ELECTROSTATIC EVALUATION FREQUENCY      2
Info: USING VERLET I (r-RESPA) MTS SCHEME.
Info: C1 SPLITTING OF LONG RANGE ELECTROSTATICS
Info: PLACING ATOMS IN PATCHES BY HYDROGEN GROUPS
Info: RIGID BONDS TO HYDROGEN : ALL
Info:         ERROR TOLERANCE : 1e-08
Info:          MAX ITERATIONS : 100
Info: RIGID WATER USING SETTLE ALGORITHM
Info: RANDOM NUMBER SEED     1742551873
Info: USE HYDROGEN BONDS?    NO
Info: Using AMBER format force field!
Info: AMBER PARM FILE        mobley_5499659.prmtop
Info: COORDINATE PDB         mobley_5499659.pdb
Info: Exclusions will be read from PARM file!
Info: SCNB (VDW SCALING)     2
Info: USING ARITHMETIC MEAN TO COMBINE L-J SIGMA PARAMETERS
Info: BINARY COORDINATES     mobley_5499659_equil.coor
Info: SUMMARY OF PARAMETERS:
Info: 11 BONDS
Info: 14 ANGLES
Info:   14 HARMONIC
Info:   0 COSINE-BASED
Info: 4 DIHEDRAL
Info: 0 IMPROPER
Info: 0 CROSSTERM
Info: 0 VDW
Info: 45 VDW_PAIRS
Info: 0 NBTHOLE_PAIRS
Info: To read alchdata from file: mobley_5499659.pdb
Info: To read alchflag data from column: 5
Info: STRUCTURE SUMMARY:
Info: 2928 ATOMS
Info: 2928 BONDS
Info: 19 ANGLES
Info: 22 DIHEDRALS
Info: 0 IMPROPERS
Info: 0 CROSSTERMS
Info: 2964 EXCLUSIONS
Info: 2922 RIGID BONDS
Info: ALCH: 0 ATOMS TO DISAPPEAR IN FINAL STATE
Info: ALCH: 12 ATOMS TO APPEAR IN FINAL STATE
Info: 5862 DEGREES OF FREEDOM
Info: 978 HYDROGEN GROUPS
Info: 4 ATOMS IN LARGEST HYDROGEN GROUP
Info: 978 MIGRATION GROUPS
Info: 4 ATOMS IN LARGEST MIGRATION GROUP
Info: TOTAL MASS = 17593.7 amu
Info: TOTAL CHARGE = 0.000100017 e
Info: MASS DENSITY = 0.963763 g/cm^3
Info: ATOM DENSITY = 0.0965886 atoms/A^3
Info: ADDED 0 IMPLICIT EXCLUSIONS
Info: NONBONDED TABLE R-SQUARED SPACING: 0.0625
Info: NONBONDED TABLE SIZE: 705 POINTS
Info: REDUCING NUMBER OF PATCHES TO IMPROVE LOAD BALANCE
Info: REMOVING COM VELOCITY -0.00824742 0.0252893 -0.00945113
Info: Use 3D box decompostion in PME FFT.
Info: Updated CUDA force table with 4096 elements.
Info: Updated CUDA LJ table with 9 x 9 elements.
Info: Found 14 unique exclusion lists needing 28 bytes
TCL: Running for 1500000 steps
ETITLE: TS BOND ANGLE DIHED IMPRP ELECT VDW BOUNDARY MISC KINETIC TOTAL TEMP POTENTIAL TOTALAVG TEMPAVG PRESSURE GPRESSURE VOLUME PRESSAVG GPRESSAVG
ENERGY: 0 2.2310 3.6248 2.6820 0.0000 -10653.7727 1462.3555 0.0000 0.0000 1755.8818 -7426.9976 301.4670 -9182.8793 -7426.9976 301.4670 135.2017 205.8877 30314.1400 135.2017 205.8877
ENERGY: 300000 1.2707 2.9883 1.8006 0.0000 -10642.8498 1415.1627 0.0000 0.0000 1698.5245 -7523.1030 291.6194 -9221.6275 -7463.2506 294.6692 -210.4478 -172.5944 30219.9963 194.5884 268.2297
ENERGY: 600000 1.1563 5.4694 0.6748 0.0000 -10643.3207 1457.1686 0.0000 0.0000 1761.6621 -7417.1894 302.4595 -9178.8515 -7462.2344 296.1226 158.4225 203.7861 29866.7189 49.2789 110.4713
ENERGY: 900000 2.6885 5.2300 3.0215 0.0000 -10637.6435 1461.2016 0.0000 0.0000 1743.5611 -7421.9408 299.3517 -9165.5019 -7448.9348 296.8616 361.5017 411.3240 29877.8019 46.8855 114.2592
ENERGY: 1200000 0.4540 1.8701 3.1412 0.0000 -10496.6274 1314.9660 0.0000 0.0000 1755.4578 -7420.7383 301.3943 -9176.1961 -7440.4812 297.5820 -896.2233 -842.3811 30080.6330 -7.1921 55.3192
ENERGY: 1500000 4.1134 6.5027 3.5455 0.0000 -10658.2219 1445.9140 0.0000 0.0000 1778.5336 -7419.6128 305.3561 -9198.1464 -7429.7472 298.5683 196.7531 218.2732 29962.9524 -25.8571 32.9980
TCL: Running FEP window   2: Lambda1 0.05   Lambda2 0.1    [dLambda 0.05  ]
TCL: Setting parameter firsttimestep to 0
TCL: Setting parameter alchLambda to 0.05
Info: NONBONDED TABLE R-SQUARED SPACING: 0.0625
Info: NONBONDED TABLE SIZE: 705 POINTS
TCL: Setting parameter alchLambda2 to 0.1
Info: NONBONDED TABLE R-SQUARED SPACING: 0.0625
Info: NONBONDED TABLE SIZE: 705 POINTS
TCL: Running for 1500000 steps
ETITLE: TS BOND ANGLE DIHED IMPRP ELECT VDW BOUNDARY MISC KINETIC TOTAL TEMP POTENTIAL TOTALAVG TEMPAVG PRESSURE GPRESSURE VOLUME PRESSAVG GPRESSAVG
ENERGY: 0 4.1134 6.5027 3.5455 0.0000 -10658.2214 1449.1389 0.0000 0.0000 1777.6440 -7417.2768 305.2034 -9194.9209 -7417.2768 305.2034 148.1364 224.8641 29962.9524 148.1364 224.8641
ENERGY: 300000 1.6160 3.4652 3.4439 0.0000 -10585.9146 1388.4461 0.0000 0.0000 1744.1385 -7444.8050 299.4508 -9188.9434 -7457.4872 299.3675 -429.6946 -347.1060 30161.2222 -116.2453 -17.7896
ENERGY: 600000 1.1102 6.2647 1.1474 0.0000 -10529.9489 1349.4435 0.0000 0.0000 1747.0998 -7424.8833 299.9593 -9171.9830 -7448.7564 300.0359 -684.2656 -613.3435 30412.7501 -252.3973 -177.0452
ENERGY: 900000 1.3810 5.7112 1.5156 0.0000 -10511.3974 1377.8313 0.0000 0.0000 1782.0826 -7342.8756 305.9655 -9124.9583 -7437.0957 300.1826 -360.4107 -297.9681 30255.2831 -239.5357 -168.1370
ENERGY: 1200000 1.8060 4.5157 3.6609 0.0000 -10652.5241 1459.1500 0.0000 0.0000 1777.9703 -7405.4212 305.2594 -9183.3915 -7425.1990 300.8828 261.0259 368.9583 29889.5026 -238.2057 -160.6805
ENERGY: 1500000 0.5842 3.8717 0.3990 0.0000 -10561.5128 1378.1902 0.0000 0.0000 1749.4455 -7429.0223 300.3620 -9178.4678 -7426.6056 300.6618 -404.1796 -371.1674 30197.6947 -262.4704 -189.9180
TCL: Running FEP window   3: Lambda1 0.1    Lambda2 0.15000000000000002 [dLambda 0.05000000000000002]
TCL: Setting parameter firsttimestep to 0
TCL: Setting parameter alchLambda to 0.1
Info: NONBONDED TABLE R-SQUARED SPACING: 0.0625
Info: NONBONDED TABLE SIZE: 705 POINTS
TCL: Setting parameter alchLambda2 to 0.15000000000000002
Info: NONBONDED TABLE R-SQUARED SPACING: 0.0625
Info: NONBONDED TABLE SIZE: 705 POINTS
TCL: Running for 1500000 steps
ETITLE: TS BOND ANGLE DIHED IMPRP ELECT VDW BOUNDARY MISC KINETIC TOTAL TEMP POTENTIAL TOTALAVG TEMPAVG PRESSURE GPRESSURE VOLUME PRESSAVG GPRESSAVG
ENERGY: 0 0.5842 3.8717 0.3990 0.0000 -10561.5132 1379.4159 0.0000 0.0000 1748.6069 -7428.6354 300.2180 -9177.2424 -7428.6354 300.2180 -462.4832 -367.3111 30197.6947 -462.4832 -367.3111
ENERGY: 300000 0.8693 2.5534 1.0065 0.0000 -10663.8021 1438.1008 0.0000 0.0000 1790.3717 -7430.9004 307.3886 -9221.2721 -7403.8082 301.1415 38.3475 98.1747 29801.3049 -325.8985 -269.0999
ENERGY: 600000 1.5897 3.8997 2.6053 0.0000 -10634.0426 1453.1180 0.0000 0.0000 1707.7350 -7465.0948 293.2007 -9172.8299 -7412.9791 300.1574 226.2346 322.2410 29783.0244 -285.3831 -217.3239
ENERGY: 900000 0.8937 4.8505 2.6129 0.0000 -10545.6735 1387.4219 0.0000 0.0000 1764.0080 -7385.8867 302.8622 -9149.8946 -7424.8001 299.2257 -284.3205 -260.6892 29998.8274 -232.8227 -169.0575
ENERGY: 1200000 2.7983 3.5141 3.7755 0.0000 -10638.5747 1396.1950 0.0000 0.0000 1708.4702 -7523.8215 293.3270 -9232.2918 -7440.6742 299.0441 -252.5065 -131.6035 29368.1449 -210.8296 -140.9097
ENERGY: 1500000 3.1342 2.3154 0.6177 0.0000 -10500.8921 1329.5144 0.0000 0.0000 1741.3820 -7423.9284 298.9776 -9165.3104 -7436.5542 299.1304 -905.7467 -882.7932 30040.7033 -247.3790 -182.3090
TCL: Running FEP window   4: Lambda1 0.15000000000000002 Lambda2 0.2    [dLambda 0.04999999999999999]
TCL: Setting parameter firsttimestep to 0
TCL: Setting parameter alchLambda to 0.15000000000000002
Info: NONBONDED TABLE R-SQUARED SPACING: 0.0625
Info: NONBONDED TABLE SIZE: 705 POINTS
TCL: Setting parameter alchLambda2 to 0.2
Info: NONBONDED TABLE R-SQUARED SPACING: 0.0625
Info: NONBONDED TABLE SIZE: 705 POINTS
TCL: Running for 1500000 steps
ETITLE: TS BOND ANGLE DIHED IMPRP ELECT VDW BOUNDARY MISC KINETIC TOTAL TEMP POTENTIAL TOTALAVG TEMPAVG PRESSURE GPRESSURE VOLUME PRESSAVG GPRESSAVG
ENERGY: 0 3.1342 2.3154 0.6177 0.0000 -10500.8921 1330.4249 0.0000 0.0000 1740.4948 -7423.9051 298.8253 -9164.3999 -7423.9051 298.8253 -974.0665 -877.8175 30040.7033 -974.0665 -877.8175
ENERGY: 300000 0.4453 5.7929 1.3797 0.0000 -10595.6324 1410.0299 0.0000 0.0000 1729.3434 -7448.6412 296.9107 -9177.9846 -7456.0286 296.0685 -224.3390 -175.1576 30024.4586 -294.5345 -208.5315
ENERGY: 600000 2.7964 1.9404 3.2441 0.0000 -10686.0141 1472.5689 0.0000 0.0000 1737.0579 -7468.4062 298.2352 -9205.4642 -7465.7266 296.0446 282.2054 281.1704 30258.8179 -129.9183 -73.3937
ENERGY: 900000 1.4522 4.9825 2.7214 0.0000 -10582.7403 1421.5993 0.0000 0.0000 1775.6109 -7376.3740 304.8543 -9151.9849 -7442.1615 298.4778 130.8736 237.9954 29828.3911 -28.5994 41.6381
ENERGY: 1200000 1.4263 6.4729 4.7551 0.0000 -10657.4976 1471.6479 0.0000 0.0000 1770.1382 -7403.0573 303.9147 -9173.1955 -7443.3662 298.3866 205.8747 206.3362 30413.7174 -58.1440 1.0902
ENERGY: 1500000 2.8135 4.6560 1.9227 0.0000 -10675.4064 1452.9266 0.0000 0.0000 1719.6996 -7493.3881 295.2549 -9213.0877 -7443.9048 297.9211 -81.7757 -18.6882 30169.8265 -40.7731 22.6421
TCL: Running FEP window   5: Lambda1 0.2    Lambda2 0.25   [dLambda 0.04999999999999999]
TCL: Setting parameter firsttimestep to 0
TCL: Setting parameter alchLambda to 0.2
Info: NONBONDED TABLE R-SQUARED SPACING: 0.0625
Info: NONBONDED TABLE SIZE: 705 POINTS
TCL: Setting parameter alchLambda2 to 0.25
Info: NONBONDED TABLE R-SQUARED SPACING: 0.0625
Info: NONBONDED TABLE SIZE: 705 POINTS
TCL: Running for 1500000 steps
ETITLE: TS BOND ANGLE DIHED IMPRP ELECT VDW BOUNDARY MISC KINETIC TOTAL TEMP POTENTIAL TOTALAVG TEMPAVG PRESSURE GPRESSURE VOLUME PRESSAVG GPRESSAVG
ENERGY: 0 2.8135 4.6560 1.9227 0.0000 -10675.4071 1454.7009 0.0000 0.0000 1718.8081 -7492.5060 295.1019 -9211.3141 -7492.5060 295.1019 -91.4651 -11.3958 30169.8265 -91.4651 -11.3958
ENERGY: 300000 2.7445 5.3249 0.7146 0.0000 -10708.8727 1513.8385 0.0000 0.0000 1725.3560 -7460.8941 296.2261 -9186.2502 -7453.4173 298.2004 384.7414 453.8312 30144.2065 -205.0230 -166.2980
ENERGY: 600000 4.9440 5.0628 1.1073 0.0000 -10582.0346 1431.9188 0.0000 0.0000 1713.7196 -7425.2819 294.2282 -9139.0016 -7442.9075 297.2354 64.1534 140.5253 30135.0393 45.4145 98.2695
ENERGY: 900000 3.4328 3.3652 1.6555 0.0000 -10514.6888 1299.6575 0.0000 0.0000 1708.6968 -7497.8810 293.3659 -9206.5778 -7442.1869 297.5048 -1396.4841 -1334.8914 30384.4440 46.2623 102.3190
ENERGY: 1200000 1.5292 5.3582 2.2253 0.0000 -10583.7864 1330.3233 0.0000 0.0000 1787.8352 -7456.5151 306.9531 -9244.3503 -7434.6782 299.5410 -909.6725 -824.8419 29987.6970 -14.8535 43.8809
ENERGY: 1500000 2.1278 4.4109 1.5748 0.0000 -10636.6814 1429.9126 0.0000 0.0000 1736.8684 -7461.7868 298.2026 -9198.6552 -7431.0472 300.2331 -151.5268 -100.8489 30095.4272 -26.4100 29.1096
TCL: Running FEP window   6: Lambda1 0.25   Lambda2 0.3    [dLambda 0.04999999999999999]
TCL: Setting parameter firsttimestep to 0
TCL: Setting parameter alchLambda to 0.25
Info: NONBONDED TABLE R-SQUARED SPACING: 0.0625
Info: NONBONDED TABLE SIZE: 705 POINTS
TCL: Setting parameter alchLambda2 to 0.3
Info: NONBONDED TABLE R-SQUARED SPACING: 0.0625
Info: NONBONDED TABLE SIZE: 705 POINTS
TCL: Running for 1500000 steps
ETITLE: TS BOND ANGLE DIHED IMPRP ELECT VDW BOUNDARY MISC KINETIC TOTAL TEMP POTENTIAL TOTALAVG TEMPAVG PRESSURE GPRESSURE VOLUME PRESSAVG GPRESSAVG
ENERGY: 0 2.1278 4.4109 1.5748 0.0000 -10636.6818 1429.4085 0.0000 0.0000 1736.0427 -7463.1169 298.0609 -9199.1597 -7463.1169 298.0609 -177.4298 -101.5032 30095.4272 -177.4298 -101.5032
ENERGY: 300000 2.2204 4.9397 0.7578 0.0000 -10556.3611 1388.9012 0.0000 0.0000 1736.8878 -7422.6542 298.2060 -9159.5421 -7469.7271 296.8266 -308.3148 -277.4161 29906.4044 -393.0509 -335.7898
ENERGY: 600000 2.1862 3.5934 3.4884 0.0000 -10541.7957 1376.8690 0.0000 0.0000 1762.9174 -7392.7413 302.6750 -9155.6587 -7439.9239 298.2218 -383.6483 -370.1314 30129.7608 -372.8369 -328.6470
ENERGY: 900000 0.8869 5.7961 1.5643 0.0000 -10580.9515 1400.4789 0.0000 0.0000 1699.4484 -7472.7769 291.7780 -9172.2253 -7425.1648 298.1319 -527.7065 -443.0474 30408.6466 -303.6981 -256.2221
ENERGY: 1200000 3.5140 3.8421 2.6195 0.0000 -10588.8950 1365.1579 0.0000 0.0000 1769.7399 -7444.0216 303.8463 -9213.7615 -7425.6215 299.5079 -654.8158 -628.0734 30039.0247 -343.0144 -301.2150
ENERGY: 1500000 1.4406 8.7958 1.4828 0.0000 -10630.6111 1446.0147 0.0000 0.0000 1752.9314 -7419.9457 300.9605 -9172.8771 -7428.9358 299.5193 127.3572 167.8369 30129.7192 -277.1911 -230.9320
TCL: Running FEP window   7: Lambda1 0.3    Lambda2 0.35   [dLambda 0.04999999999999999]
TCL: Setting parameter firsttimestep to 0
TCL: Setting parameter alchLambda to 0.3
Info: NONBONDED TABLE R-SQUARED SPACING: 0.0625
Info: NONBONDED TABLE SIZE: 705 POINTS
TCL: Setting parameter alchLambda2 to 0.35
Info: NONBONDED TABLE R-SQUARED SPACING: 0.0625
Info: NONBONDED TABLE SIZE: 705 POINTS
TCL: Running for 1500000 steps
ETITLE: TS BOND ANGLE DIHED IMPRP ELECT VDW BOUNDARY MISC KINETIC TOTAL TEMP POTENTIAL TOTALAVG TEMPAVG PRESSURE GPRESSURE VOLUME PRESSAVG GPRESSAVG
ENERGY: 0 1.4406 8.7958 1.4828 0.0000 -10630.6132 1446.0495 0.0000 0.0000 1752.0283 -7420.8161 300.8054 -9172.8443 -7420.8161 300.8054 97.8558 170.1177 30129.7192 97.8558 170.1177
ENERGY: 300000 1.2229 3.9780 1.7576 0.0000 -10717.6359 1513.8486 0.0000 0.0000 1748.3541 -7448.4746 300.1746 -9196.8287 -7454.8427 299.2992 426.4134 452.9021 30710.2452 88.3650 134.1994
ENERGY: 600000 2.0729 4.8024 2.6987 0.0000 -10492.0882 1340.0226 0.0000 0.0000 1813.2954 -7329.1962 311.3244 -9142.4916 -7446.6745 301.2775 -581.6223 -509.4325 30117.8872 -129.2163 -74.0991
ENERGY: 900000 1.3375 5.0856 0.4496 0.0000 -10683.1597 1484.0099 0.0000 0.0000 1779.0702 -7413.2069 305.4483 -9192.2772 -7424.8626 303.8408 263.0437 368.5491 30136.5635 -46.7284 6.2952
ENERGY: 1200000 2.5400 1.5327 1.4644 0.0000 -10552.3829 1380.4995 0.0000 0.0000 1781.6153 -7384.7310 305.8852 -9166.3463 -7425.8488 304.0322 44.1557 54.4214 29765.7518 -27.8802 27.5483
ENERGY: 1500000 0.8940 2.9100 2.4306 0.0000 -10485.3406 1401.6978 0.0000 0.0000 1840.2349 -7237.1732 315.9496 -9077.4081 -7414.4706 303.9899 -71.7213 -2.9490 30510.3992 -37.0918 19.0106
TCL: Running FEP window   8: Lambda1 0.35   Lambda2 0.39999999999999997 [dLambda 0.04999999999999999]
TCL: Setting parameter firsttimestep to 0
TCL: Setting parameter alchLambda to 0.35
Info: NONBONDED TABLE R-SQUARED SPACING: 0.0625
Info: NONBONDED TABLE SIZE: 705 POINTS
TCL: Setting parameter alchLambda2 to 0.39999999999999997
Info: NONBONDED TABLE R-SQUARED SPACING: 0.0625
Info: NONBONDED TABLE SIZE: 705 POINTS
TCL: Running for 1500000 steps
ETITLE: TS BOND ANGLE DIHED IMPRP ELECT VDW BOUNDARY MISC KINETIC TOTAL TEMP POTENTIAL TOTALAVG TEMPAVG PRESSURE GPRESSURE VOLUME PRESSAVG GPRESSAVG
ENERGY: 0 0.8940 2.9100 2.4306 0.0000 -10485.3402 1401.7341 0.0000 0.0000 1839.3604 -7238.0110 315.7995 -9077.3714 -7238.0110 315.7995 -94.6768 2.1257 30510.3992 -94.6768 2.1257
ENERGY: 300000 1.1360 5.4902 0.8817 0.0000 -10646.1446 1459.7053 0.0000 0.0000 1714.5622 -7464.3693 294.3729 -9178.9315 -7428.6224 300.9644 399.1062 469.3665 29953.8628 138.8742 203.5616
ENERGY: 600000 0.7048 4.5663 0.4033 0.0000 -10619.2248 1487.5692 0.0000 0.0000 1725.6334 -7400.3477 296.2737 -9125.9811 -7440.3990 298.6681 607.3891 589.2650 30081.9154 5.6963 45.4536
ENERGY: 900000 3.8773 1.5087 2.6733 0.0000 -10691.6923 1513.2554 0.0000 0.0000 1733.6639 -7436.7136 297.6525 -9170.3775 -7439.9796 299.7455 613.1558 748.1304 30041.8208 -16.2283 32.7432
ENERGY: 1200000 0.6013 4.2494 1.4306 0.0000 -10483.7462 1347.2978 0.0000 0.0000 1789.8212 -7340.3459 307.2941 -9130.1671 -7429.2968 300.6963 -422.7186 -357.8032 29933.4906 -66.2464 -17.2967
ENERGY: 1500000 0.4211 4.0606 0.9345 0.0000 -10778.6803 1537.2598 0.0000 0.0000 1769.4182 -7466.5861 303.7911 -9236.0043 -7432.9799 301.2575 755.9262 845.5542 29926.7769 -29.1295 22.4278
TCL: Running FEP window   9: Lambda1 0.39999999999999997 Lambda2 0.44999999999999996 [dLambda 0.04999999999999999]
TCL: Setting parameter firsttimestep to 0
TCL: Setting parameter alchLambda to 0.39999999999999997
Info: NONBONDED TABLE R-SQUARED SPACING: 0.0625
Info: NONBONDED TABLE SIZE: 705 POINTS
TCL: Setting parameter alchLambda2 to 0.44999999999999996
Info: NONBONDED TABLE R-SQUARED SPACING: 0.0625
Info: NONBONDED TABLE SIZE: 705 POINTS
TCL: Running for 1500000 steps
ETITLE: TS BOND ANGLE DIHED IMPRP ELECT VDW BOUNDARY MISC KINETIC TOTAL TEMP POTENTIAL TOTALAVG TEMPAVG PRESSURE GPRESSURE VOLUME PRESSAVG GPRESSAVG
ENERGY: 0 0.4211 4.0606 0.9345 0.0000 -10778.6808 1536.9082 0.0000 0.0000 1768.5768 -7467.7796 303.6466 -9236.3564 -7467.7796 303.6466 773.6817 847.5475 29926.7769 773.6817 847.5475
ENERGY: 300000 1.2216 4.3607 1.1970 0.0000 -10586.2685 1367.5232 0.0000 0.0000 1720.5859 -7491.3800 295.4071 -9211.9660 -7440.9335 298.3600 -713.2780 -671.5695 30442.5137 -15.1645 56.4785
ENERGY: 600000 2.2618 3.9664 1.1152 0.0000 -10609.1423 1379.3935 0.0000 0.0000 1816.9021 -7405.5034 311.9436 -9222.4055 -7440.9862 301.8610 -700.3105 -593.7438 30266.9986 -175.6777 -106.1058
ENERGY: 900000 2.9180 2.9759 1.6311 0.0000 -10753.0018 1467.4892 0.0000 0.0000 1724.4325 -7553.5551 296.0675 -9277.9876 -7450.9321 302.2496 137.3137 207.3514 29862.4357 -124.0189 -52.6769
ENERGY: 1200000 0.6945 3.5983 2.3378 0.0000 -10599.2796 1409.4014 0.0000 0.0000 1747.8145 -7435.4331 300.0820 -9183.2476 -7443.2272 301.6495 79.6743 125.5511 29687.8710 -135.9041 -66.3007
ENERGY: 1500000 3.0528 4.9838 2.5786 0.0000 -10504.1708 1377.6489 0.0000 0.0000 1746.5805 -7369.3262 299.8701 -9115.9067 -7433.8665 301.4631 -505.6639 -404.6825 30806.0793 -95.8747 -21.0168
TCL: Running FEP window  10: Lambda1 0.44999999999999996 Lambda2 0.49999999999999994 [dLambda 0.04999999999999999]
TCL: Setting parameter firsttimestep to 0
TCL: Setting parameter alchLambda to 0.44999999999999996
Info: NONBONDED TABLE R-SQUARED SPACING: 0.0625
Info: NONBONDED TABLE SIZE: 705 POINTS
TCL: Setting parameter alchLambda2 to 0.49999999999999994
Info: NONBONDED TABLE R-SQUARED SPACING: 0.0625
Info: NONBONDED TABLE SIZE: 705 POINTS
TCL: Running for 1500000 steps
ETITLE: TS BOND ANGLE DIHED IMPRP ELECT VDW BOUNDARY MISC KINETIC TOTAL TEMP POTENTIAL TOTALAVG TEMPAVG PRESSURE GPRESSURE VOLUME PRESSAVG GPRESSAVG
ENERGY: 0 3.0528 4.9838 2.5786 0.0000 -10504.1690 1377.3071 0.0000 0.0000 1745.6948 -7370.5518 299.7180 -9116.2466 -7370.5518 299.7180 -483.4086 -402.3627 30806.0793 -483.4086 -402.3627
ENERGY: 300000 0.5401 3.5071 3.0643 0.0000 -10511.0474 1360.0636 0.0000 0.0000 1715.0298 -7428.8425 294.4532 -9143.8723 -7385.7268 300.5477 -745.1938 -710.2472 30796.9763 -363.5170 -305.3797
ENERGY: 600000 1.0913 3.3134 1.7694 0.0000 -10578.0535 1355.1994 0.0000 0.0000 1765.3527 -7451.3273 303.0931 -9216.6800 -7398.2812 302.7196 -805.9076 -730.9658 30268.2704 -349.4447 -289.1027
ENERGY: 900000 1.3927 3.2308 0.8091 0.0000 -10618.1224 1469.3895 0.0000 0.0000 1703.7772 -7439.5231 292.5212 -9143.3003 -7397.6251 303.0674 394.4568 481.1841 30104.6760 -154.9584 -92.0871
ENERGY: 1200000 1.0879 6.3467 0.5744 0.0000 -10490.7806 1337.7817 0.0000 0.0000 1748.1138 -7396.8760 300.1334 -9144.9899 -7392.1588 303.1535 -820.2128 -797.4654 30529.9541 -139.4433 -82.1000
ENERGY: 1500000 1.0857 6.1255 1.3896 0.0000 -10494.4272 1314.8436 0.0000 0.0000 1692.9480 -7478.0349 290.6620 -9170.9829 -7405.2133 302.3435 -707.5136 -666.2386 29813.4833 -103.8657 -45.6848
TCL: Running FEP window  11: Lambda1 0.49999999999999994 Lambda2 0.5499999999999999 [dLambda 0.04999999999999999]
TCL: Setting parameter firsttimestep to 0
TCL: Setting parameter alchLambda to 0.49999999999999994
Info: NONBONDED TABLE R-SQUARED SPACING: 0.0625
Info: NONBONDED TABLE SIZE: 705 POINTS
TCL: Setting parameter alchLambda2 to 0.5499999999999999
Info: NONBONDED TABLE R-SQUARED SPACING: 0.0625
Info: NONBONDED TABLE SIZE: 705 POINTS
TCL: Running for 1500000 steps
ETITLE: TS BOND ANGLE DIHED IMPRP ELECT VDW BOUNDARY MISC KINETIC TOTAL TEMP POTENTIAL TOTALAVG TEMPAVG PRESSURE GPRESSURE VOLUME PRESSAVG GPRESSAVG
ENERGY: 0 1.0857 6.1255 1.3896 0.0000 -10494.4278 1314.5623 0.0000 0.0000 1692.0989 -7479.1658 290.5162 -9171.2648 -7479.1658 290.5162 -738.2370 -663.6496 29813.4833 -738.2370 -663.6496
ENERGY: 300000 2.2264 4.2300 0.4073 0.0000 -10679.8554 1511.8391 0.0000 0.0000 1830.2614 -7330.8912 314.2373 -9161.1527 -7425.4917 299.6640 740.4111 792.8042 30126.1794 178.7639 239.8650
ENERGY: 600000 0.7816 4.4570 1.0138 0.0000 -10613.6847 1399.8075 0.0000 0.0000 1765.8646 -7441.7603 303.1810 -9207.6249 -7414.9585 300.8471 -222.8882 -142.7186 29921.1416 70.5414 138.7799
ENERGY: 900000 0.9514 2.6860 0.9763 0.0000 -10758.5061 1514.7745 0.0000 0.0000 1717.8583 -7521.2596 294.9388 -9239.1179 -7417.1321 299.5192 690.1244 742.7507 29650.2980 -50.6273 8.5405
ENERGY: 1200000 0.5066 5.1219 3.0519 0.0000 -10485.2567 1298.5746 0.0000 0.0000 1753.3555 -7424.6462 301.0333 -9178.0016 -7421.0652 300.0917 -986.9120 -896.2703 30089.0669 -104.3184 -43.3716
ENERGY: 1500000 2.2400 3.5385 1.2073 0.0000 -10615.0566 1448.5331 0.0000 0.0000 1773.5578 -7385.9800 304.5018 -9159.5377 -7427.4688 300.3163 483.8863 583.6017 29840.3737 -74.1506 -14.3509
TCL: Running FEP window  12: Lambda1 0.5499999999999999 Lambda2 0.6    [dLambda 0.050000000000000044]
TCL: Setting parameter firsttimestep to 0
TCL: Setting parameter alchLambda to 0.5499999999999999
Info: NONBONDED TABLE R-SQUARED SPACING: 0.0625
Info: NONBONDED TABLE SIZE: 705 POINTS
TCL: Setting parameter alchLambda2 to 0.6
Info: NONBONDED TABLE R-SQUARED SPACING: 0.0625
Info: NONBONDED TABLE SIZE: 705 POINTS
TCL: Running for 1500000 steps
ETITLE: TS BOND ANGLE DIHED IMPRP ELECT VDW BOUNDARY MISC KINETIC TOTAL TEMP POTENTIAL TOTALAVG TEMPAVG PRESSURE GPRESSURE VOLUME PRESSAVG GPRESSAVG
ENERGY: 0 2.2400 3.5385 1.2073 0.0000 -10614.7514 1448.4520 0.0000 0.0000 1772.6780 -7386.6357 304.3508 -9159.3137 -7386.6357 304.3508 512.5939 588.1744 29840.3737 512.5939 588.1744
ENERGY: 300000 1.3124 5.1591 3.1435 0.0000 -10519.2473 1377.2156 0.0000 0.0000 1727.1120 -7405.3046 296.5276 -9132.4166 -7422.2491 298.2065 -533.0801 -441.4252 30459.6190 -592.6232 -520.3911
ENERGY: 600000 2.0135 4.7778 2.5534 0.0000 -10808.1256 1524.8949 0.0000 0.0000 1761.9914 -7511.8945 302.5160 -9273.8859 -7430.0056 301.6668 364.1935 389.0916 30236.7648 -319.3399 -250.5168
ENERGY: 900000 2.3962 4.5150 1.0916 0.0000 -10675.1651 1462.4837 0.0000 0.0000 1784.5787 -7420.1000 306.3940 -9204.6787 -7434.5059 301.3459 431.6529 511.8371 29770.6967 -86.1183 -6.3656
ENERGY: 1200000 3.4948 2.6835 0.6434 0.0000 -10552.3782 1375.0933 0.0000 0.0000 1735.7017 -7434.7614 298.0023 -9170.4631 -7424.7748 301.4334 -210.8452 -213.1390 29735.3811 -197.9105 -125.5078
ENERGY: 1500000 1.6042 3.2856 0.8051 0.0000 -10563.4035 1327.7471 0.0000 0.0000 1757.0496 -7472.9119 301.6675 -9229.9615 -7426.7500 301.4187 -954.9552 -949.6802 30456.3673 -215.8827 -145.4915
TCL: Running FEP window  13: Lambda1 0.6    Lambda2 0.65   [dLambda 0.050000000000000044]
TCL: Setting parameter firsttimestep to 0
TCL: Setting parameter alchLambda to 0.6
Info: NONBONDED TABLE R-SQUARED SPACING: 0.0625
Info: NONBONDED TABLE SIZE: 705 POINTS
TCL: Setting parameter alchLambda2 to 0.65
Info: NONBONDED TABLE R-SQUARED SPACING: 0.0625
Info: NONBONDED TABLE SIZE: 705 POINTS
TCL: Running for 1500000 steps
ETITLE: TS BOND ANGLE DIHED IMPRP ELECT VDW BOUNDARY MISC KINETIC TOTAL TEMP POTENTIAL TOTALAVG TEMPAVG PRESSURE GPRESSURE VOLUME PRESSAVG GPRESSAVG
ENERGY: 0 1.6042 3.2856 0.8051 0.0000 -10563.0342 1327.5493 0.0000 0.0000 1756.1647 -7473.6252 301.5156 -9229.7899 -7473.6252 301.5156 -1010.2018 -946.1498 30456.3673 -1010.2018 -946.1498
ENERGY: 300000 2.0899 2.0913 0.3895 0.0000 -10650.8274 1447.5050 0.0000 0.0000 1711.9504 -7486.8014 293.9245 -9198.7518 -7410.6205 301.1897 308.2974 312.6204 29770.5435 -165.5082 -113.2348
ENERGY: 600000 1.3306 3.0326 0.3902 0.0000 -10674.5252 1412.7276 0.0000 0.0000 1725.3522 -7531.6921 296.2254 -9257.0443 -7443.0398 298.7495 -525.3958 -442.8415 30415.6074 -225.1753 -171.2739
ENERGY: 900000 0.6848 3.0676 3.1548 0.0000 -10686.1223 1448.7629 0.0000 0.0000 1763.0935 -7467.3586 302.7052 -9230.4521 -7443.2430 299.3869 54.9355 140.0901 30004.0225 -185.3804 -122.4622
ENERGY: 1200000 2.4694 2.6755 1.9158 0.0000 -10603.8188 1409.9915 0.0000 0.0000 1733.8788 -7452.8877 297.6894 -9186.7665 -7445.7782 299.0119 -189.2644 -162.9681 30092.6844 -91.1603 -32.4769
ENERGY: 1500000 1.3476 2.6967 0.4498 0.0000 -10697.4613 1500.5559 0.0000 0.0000 1784.4445 -7407.9668 306.3710 -9192.4113 -7445.8463 299.4268 708.9591 760.8369 29997.2610 2.1951 57.5592
TCL: Running FEP window  14: Lambda1 0.65   Lambda2 0.7000000000000001 [dLambda 0.050000000000000044]
TCL: Setting parameter firsttimestep to 0
TCL: Setting parameter alchLambda to 0.65
Info: NONBONDED TABLE R-SQUARED SPACING: 0.0625
Info: NONBONDED TABLE SIZE: 705 POINTS
TCL: Setting parameter alchLambda2 to 0.7000000000000001
Info: NONBONDED TABLE R-SQUARED SPACING: 0.0625
Info: NONBONDED TABLE SIZE: 705 POINTS
TCL: Running for 1500000 steps
ETITLE: TS BOND ANGLE DIHED IMPRP ELECT VDW BOUNDARY MISC KINETIC TOTAL TEMP POTENTIAL TOTALAVG TEMPAVG PRESSURE GPRESSURE VOLUME PRESSAVG GPRESSAVG
ENERGY: 0 1.3476 2.6967 0.4498 0.0000 -10698.0138 1500.2398 0.0000 0.0000 1783.6025 -7409.6774 306.2264 -9193.2798 -7409.6774 306.2264 684.4949 765.2914 29997.2610 684.4949 765.2914
ENERGY: 300000 2.0888 3.6814 2.2469 0.0000 -10809.0901 1556.9847 0.0000 0.0000 1787.6621 -7456.4261 306.9234 -9244.0882 -7430.0086 303.3381 999.9547 1101.9729 30006.2364 325.8149 393.0044
ENERGY: 600000 1.6412 6.3353 1.3331 0.0000 -10687.7662 1450.6499 0.0000 0.0000 1763.3977 -7464.4089 302.7575 -9227.8066 -7420.7824 303.7281 155.7772 195.1907 30118.1292 297.6963 369.3988
ENERGY: 900000 1.7451 4.7874 1.4887 0.0000 -10533.7466 1392.3091 0.0000 0.0000 1743.0842 -7390.3321 299.2698 -9133.4163 -7396.0874 304.1094 -285.1788 -275.8497 30413.7762 279.9521 338.7851
ENERGY: 1200000 2.9987 2.6331 1.1323 0.0000 -10639.9551 1445.6596 0.0000 0.0000 1776.6733 -7410.8581 305.0367 -9187.5314 -7401.1347 304.1579 217.3557 369.4894 29854.0309 302.7252 369.6881
ENERGY: 1500000 2.1683 4.7238 0.8557 0.0000 -10670.4178 1444.0357 0.0000 0.0000 1773.1737 -7445.4605 304.4359 -9218.6342 -7411.0286 303.5192 3.9847 50.3052 30199.4890 203.3898 272.7057
TCL: Running FEP window  15: Lambda1 0.7000000000000001 Lambda2 0.7500000000000001 [dLambda 0.050000000000000044]
TCL: Setting parameter firsttimestep to 0
TCL: Setting parameter alchLambda to 0.7000000000000001
Info: NONBONDED TABLE R-SQUARED SPACING: 0.0625
Info: NONBONDED TABLE SIZE: 705 POINTS
TCL: Setting parameter alchLambda2 to 0.7500000000000001
Info: NONBONDED TABLE R-SQUARED SPACING: 0.0625
Info: NONBONDED TABLE SIZE: 705 POINTS
TCL: Running for 1500000 steps
ETITLE: TS BOND ANGLE DIHED IMPRP ELECT VDW BOUNDARY MISC KINETIC TOTAL TEMP POTENTIAL TOTALAVG TEMPAVG PRESSURE GPRESSURE VOLUME PRESSAVG GPRESSAVG
ENERGY: 0 2.1683 4.7238 0.8557 0.0000 -10671.1829 1443.7841 0.0000 0.0000 1772.2690 -7447.3820 304.2806 -9219.6509 -7447.3820 304.2806 -42.5025 53.4654 30199.4890 -42.5025 53.4654
ENERGY: 300000 0.0992 3.2727 0.6505 0.0000 -10541.9773 1362.3970 0.0000 0.0000 1721.3912 -7454.1667 295.5454 -9175.5580 -7443.7995 298.9484 -602.6935 -608.1741 30572.2141 -314.5432 -264.0317
ENERGY: 600000 0.7299 3.5452 3.4304 0.0000 -10690.4466 1475.2086 0.0000 0.0000 1746.6941 -7460.8384 299.8896 -9207.5325 -7451.9275 297.9393 309.0053 359.9236 29975.4899 -202.0706 -140.5768
ENERGY: 900000 3.8933 6.3573 0.8683 0.0000 -10589.3836 1438.4274 0.0000 0.0000 1714.6219 -7425.2155 294.3831 -9139.8375 -7434.2461 297.1213 -1.0796 95.8153 30271.1735 -93.5360 -35.2632
ENERGY: 1200000 0.8439 3.3926 2.2459 0.0000 -10507.3832 1317.3644 0.0000 0.0000 1773.7512 -7409.7852 304.5350 -9183.5364 -7434.8238 298.2437 -823.1067 -754.3104 30192.7158 -123.9921 -68.1225
ENERGY: 1500000 2.3662 4.7016 1.7150 0.0000 -10624.0922 1467.9737 0.0000 0.0000 1745.6159 -7401.7197 299.7045 -9147.3356 -7432.6784 298.6974 370.8696 406.2513 30513.3749 -35.8581 17.2711
TCL: Running FEP window  16: Lambda1 0.7500000000000001 Lambda2 0.8000000000000002 [dLambda 0.050000000000000044]
TCL: Setting parameter firsttimestep to 0
TCL: Setting parameter alchLambda to 0.7500000000000001
Info: NONBONDED TABLE R-SQUARED SPACING: 0.0625
Info: NONBONDED TABLE SIZE: 705 POINTS
TCL: Setting parameter alchLambda2 to 0.8000000000000002
Info: NONBONDED TABLE R-SQUARED SPACING: 0.0625
Info: NONBONDED TABLE SIZE: 705 POINTS
TCL: Running for 1500000 steps
ETITLE: TS BOND ANGLE DIHED IMPRP ELECT VDW BOUNDARY MISC KINETIC TOTAL TEMP POTENTIAL TOTALAVG TEMPAVG PRESSURE GPRESSURE VOLUME PRESSAVG GPRESSAVG
ENERGY: 0 2.3662 4.7016 1.7150 0.0000 -10624.6411 1467.6159 0.0000 0.0000 1744.7536 -7403.4888 299.5565 -9148.2425 -7403.4888 299.5565 334.4912 407.9283 30513.3749 334.4912 407.9283
ENERGY: 300000 0.6550 6.0108 1.2649 0.0000 -10646.8652 1430.7111 0.0000 0.0000 1744.7723 -7463.4510 299.5597 -9208.2234 -7463.0035 297.0849 24.6629 79.3511 29956.2507 14.7367 76.3509
ENERGY: 600000 1.1880 6.3213 0.9055 0.0000 -10565.9754 1345.5373 0.0000 0.0000 1759.0673 -7452.9559 302.0140 -9212.0232 -7462.0438 297.7345 -724.8296 -644.0170 30172.7624 -47.8821 10.7692
ENERGY: 900000 3.1842 3.9082 1.8402 0.0000 -10525.7717 1355.5136 0.0000 0.0000 1811.3763 -7349.9492 310.9949 -9161.3254 -7441.1254 299.4056 -452.8565 -392.6255 30378.3628 -49.2417 7.2070
ENERGY: 1200000 0.5211 3.0908 0.7136 0.0000 -10635.4082 1424.4523 0.0000 0.0000 1773.4378 -7433.1926 304.4812 -9206.6304 -7430.1549 301.0875 -71.6939 -3.0375 30317.2718 24.2188 78.7752
ENERGY: 1500000 1.8280 1.6539 1.4380 0.0000 -10709.1438 1480.5184 0.0000 0.0000 1785.9791 -7437.7264 306.6344 -9223.7055 -7434.7970 301.5401 527.7676 591.4576 29617.6820 34.2949 89.9484
TCL: Running FEP window  17: Lambda1 0.8000000000000002 Lambda2 0.8500000000000002 [dLambda 0.050000000000000044]
TCL: Setting parameter firsttimestep to 0
TCL: Setting parameter alchLambda to 0.8000000000000002
Info: NONBONDED TABLE R-SQUARED SPACING: 0.0625
Info: NONBONDED TABLE SIZE: 705 POINTS
TCL: Setting parameter alchLambda2 to 0.8500000000000002
Info: NONBONDED TABLE R-SQUARED SPACING: 0.0625
Info: NONBONDED TABLE SIZE: 705 POINTS
TCL: Running for 1500000 steps
ETITLE: TS BOND ANGLE DIHED IMPRP ELECT VDW BOUNDARY MISC KINETIC TOTAL TEMP POTENTIAL TOTALAVG TEMPAVG PRESSURE GPRESSURE VOLUME PRESSAVG GPRESSAVG
ENERGY: 0 1.8280 1.6539 1.4380 0.0000 -10710.1168 1481.1025 0.0000 0.0000 1785.1112 -7438.9832 306.4854 -9224.0944 -7438.9832 306.4854 515.4674 604.5392 29617.6820 515.4674 604.5392
ENERGY: 300000 1.5517 4.5571 1.4913 0.0000 -10763.7900 1494.4778 0.0000 0.0000 1681.5826 -7580.1295 288.7106 -9261.7121 -7490.3333 298.4352 245.2136 185.9722 30143.4546 498.2194 548.2999
ENERGY: 600000 2.6066 4.1632 1.7828 0.0000 -10723.7467 1467.5983 0.0000 0.0000 1776.1472 -7471.4486 304.9464 -9247.5958 -7460.8570 300.6854 261.8559 402.4907 29844.6848 144.9347 212.9106
ENERGY: 900000 2.3666 7.0324 2.2676 0.0000 -10528.2419 1381.2116 0.0000 0.0000 1728.7951 -7406.5686 296.8165 -9135.3638 -7447.2171 301.4319 -283.3839 -281.8820 30694.3180 29.6735 89.6903
ENERGY: 1200000 1.8556 3.3525 3.0333 0.0000 -10599.2108 1433.4961 0.0000 0.0000 1807.5005 -7349.9727 310.3295 -9157.4732 -7427.6878 301.8056 -69.6782 -12.9598 30493.2128 -25.7762 34.8495
ENERGY: 1500000 3.5724 5.0705 1.5089 0.0000 -10734.7221 1484.0329 0.0000 0.0000 1730.2617 -7510.2756 297.0683 -9240.5373 -7435.2955 301.0012 455.3760 471.1799 30080.3468 -46.5292 4.3528
TCL: Running FEP window  18: Lambda1 0.8500000000000002 Lambda2 0.9000000000000002 [dLambda 0.050000000000000044]
TCL: Setting parameter firsttimestep to 0
TCL: Setting parameter alchLambda to 0.8500000000000002
Info: NONBONDED TABLE R-SQUARED SPACING: 0.0625
Info: NONBONDED TABLE SIZE: 705 POINTS
TCL: Setting parameter alchLambda2 to 0.9000000000000002
Info: NONBONDED TABLE R-SQUARED SPACING: 0.0625
Info: NONBONDED TABLE SIZE: 705 POINTS
TCL: Running for 1500000 steps
ETITLE: TS BOND ANGLE DIHED IMPRP ELECT VDW BOUNDARY MISC KINETIC TOTAL TEMP POTENTIAL TOTALAVG TEMPAVG PRESSURE GPRESSURE VOLUME PRESSAVG GPRESSAVG
ENERGY: 0 3.5724 5.0705 1.5089 0.0000 -10735.7163 1484.4110 0.0000 0.0000 1729.3378 -7511.8156 296.9097 -9241.1534 -7511.8156 296.9097 379.4718 476.5945 30080.3468 379.4718 476.5945
ENERGY: 300000 1.5623 2.7785 1.0598 0.0000 -10662.3751 1419.5179 0.0000 0.0000 1778.9823 -7458.4743 305.4332 -9237.4566 -7425.7056 298.6488 -625.9140 -470.2087 30671.6146 -627.9029 -527.9994
ENERGY: 600000 0.7297 5.1335 0.6206 0.0000 -10430.6106 1302.9347 0.0000 0.0000 1725.0521 -7396.1402 296.1739 -9121.1922 -7428.1173 298.8056 -938.5835 -889.8755 30443.3682 -559.2418 -472.4744
ENERGY: 900000 2.2754 7.4007 1.6506 0.0000 -10633.6566 1410.6261 0.0000 0.0000 1793.0358 -7418.6681 307.8460 -9211.7039 -7423.2274 300.3453 -7.3352 82.0278 29838.9771 -253.4800 -161.7104
ENERGY: 1200000 0.2871 4.2924 2.8986 0.0000 -10663.5425 1509.9579 0.0000 0.0000 1768.1808 -7377.9257 303.5787 -9146.1065 -7427.9883 300.4125 673.2729 692.7864 30373.4946 -49.8520 34.0151
ENERGY: 1500000 1.6137 2.3690 1.8859 0.0000 -10706.8527 1497.2060 0.0000 0.0000 1732.0989 -7471.6791 297.3838 -9203.7781 -7443.8361 299.5628 595.8395 627.2456 29919.4119 -70.8558 5.4147
TCL: Running FEP window  19: Lambda1 0.9000000000000002 Lambda2 0.9500000000000003 [dLambda 0.050000000000000044]
TCL: Setting parameter firsttimestep to 0
TCL: Setting parameter alchLambda to 0.9000000000000002
Info: NONBONDED TABLE R-SQUARED SPACING: 0.0625
Info: NONBONDED TABLE SIZE: 705 POINTS
TCL: Setting parameter alchLambda2 to 0.9500000000000003
Info: NONBONDED TABLE R-SQUARED SPACING: 0.0625
Info: NONBONDED TABLE SIZE: 705 POINTS
TCL: Running for 1500000 steps
ETITLE: TS BOND ANGLE DIHED IMPRP ELECT VDW BOUNDARY MISC KINETIC TOTAL TEMP POTENTIAL TOTALAVG TEMPAVG PRESSURE GPRESSURE VOLUME PRESSAVG GPRESSAVG
ENERGY: 0 1.6137 2.3690 1.8859 0.0000 -10708.3578 1497.5087 0.0000 0.0000 1731.1768 -7473.8037 297.2255 -9204.9806 -7473.8037 297.2255 557.4244 635.2884 29919.4119 557.4244 635.2884
ENERGY: 300000 3.2473 6.4835 0.6442 0.0000 -10833.1370 1542.0721 0.0000 0.0000 1813.2683 -7467.4216 311.3197 -9280.6899 -7469.2154 303.4384 671.6460 784.8382 30141.3220 133.5546 216.2506
ENERGY: 600000 0.9157 1.9575 2.6688 0.0000 -10745.7750 1442.6776 0.0000 0.0000 1781.5814 -7515.9740 305.8794 -9297.5554 -7472.2444 302.0601 121.3986 232.7689 29593.8610 132.1087 213.1918
ENERGY: 900000 4.0450 5.8326 1.3246 0.0000 -10538.5306 1347.5367 0.0000 0.0000 1775.2949 -7404.4970 304.8001 -9179.7918 -7450.6888 301.7554 -751.5459 -644.4356 30151.4159 -30.8963 44.6914
ENERGY: 1200000 2.3210 6.3309 1.6952 0.0000 -10685.5576 1443.6005 0.0000 0.0000 1728.8543 -7502.7557 296.8267 -9231.6101 -7457.3492 301.0267 -199.0993 -162.7641 30268.6166 -137.1667 -65.2695
ENERGY: 1500000 1.9403 4.0327 1.2573 0.0000 -10500.8601 1390.9570 0.0000 0.0000 1736.4158 -7366.2572 298.1249 -9102.6730 -7449.9514 300.9153 75.4741 136.9689 29798.5327 -154.8955 -87.4938
TCL: Running FEP window  20: Lambda1 0.9500000000000003 Lambda2 1.0    [dLambda 0.04999999999999971]
TCL: Setting parameter firsttimestep to 0
TCL: Setting parameter alchLambda to 0.9500000000000003
Info: NONBONDED TABLE R-SQUARED SPACING: 0.0625
Info: NONBONDED TABLE SIZE: 705 POINTS
TCL: Setting parameter alchLambda2 to 1.0
Info: NONBONDED TABLE R-SQUARED SPACING: 0.0625
Info: NONBONDED TABLE SIZE: 705 POINTS
TCL: Running for 1500000 steps
ETITLE: TS BOND ANGLE DIHED IMPRP ELECT VDW BOUNDARY MISC KINETIC TOTAL TEMP POTENTIAL TOTALAVG TEMPAVG PRESSURE GPRESSURE VOLUME PRESSAVG GPRESSAVG
ENERGY: 0 1.9403 4.0327 1.2573 0.0000 -10502.6228 1391.9649 0.0000 0.0000 1735.5109 -7367.9168 297.9696 -9103.4277 -7367.9168 297.9696 83.9863 158.7604 29798.5327 83.9863 158.7604
ENERGY: 300000 0.9736 4.5762 1.0289 0.0000 -10625.1972 1452.5797 0.0000 0.0000 1764.2915 -7401.7474 302.9109 -9166.0388 -7371.1078 306.7533 457.5111 529.0203 29685.4200 -13.7355 44.5487
ENERGY: 600000 2.8762 5.6150 2.8101 0.0000 -10702.2678 1516.8694 0.0000 0.0000 1741.6002 -7432.4968 299.0150 -9174.0970 -7393.0517 303.3172 815.6192 830.4652 30018.1397 -19.8531 33.4413
ENERGY: 900000 0.3360 2.4912 0.7335 0.0000 -10421.9358 1267.2625 0.0000 0.0000 1675.2632 -7475.8494 287.6256 -9151.1125 -7421.4014 301.5692 -1494.0545 -1397.1306 30934.4764 -231.0043 -171.8376
ENERGY: 1200000 1.2915 5.8660 1.1543 0.0000 -10637.9834 1392.8740 0.0000 0.0000 1735.7725 -7501.0252 298.0145 -9236.7977 -7426.8235 300.6574 -416.9631 -390.6187 30242.3209 -168.4479 -119.9027
ENERGY: 1500000 2.7009 3.0291 1.6922 0.0000 -10599.2817 1371.3657 0.0000 0.0000 1730.3299 -7490.1639 297.0800 -9220.4938 -7430.7909 300.4860 -543.2281 -452.0410 29926.6406 -238.6994 -181.8407
TCL: Exiting due to exit command.
