Info: SIMULATION PARAMETERS:
Info: TIMESTEP               2
Info: NUMBER OF STEPS        0
Info: STEPS PER CYCLE        10
Info: PERIODIC CELL BASIS 1  30.1084 0 0
Info: PERIODIC CELL BASIS 2  0 33.2674 0
Info: PERIODIC CELL BASIS 3  0 0 30.5248
Info: PERIODIC CELL CENTER   0 0 0
Info: WRAPPING WATERS AROUND PERIODIC BOUNDARIES ON OUTPUT.
Info: WRAPPING ALL CLUSTERS AROUND PERIODIC BOUNDARIES ON OUTPUT.
Info: FIRST LDB TIMESTEP     50
Info: LAST LDB TIMESTEP     -1
Info: HOM BACKGROUND SCALING 1
Info: PME BACKGROUND SCALING 1
Info: MIN ATOMS PER PATCH    40
Info: EMPTY PATCH LOAD       40 ATOMS
Info: VELOCITY FILE          mobley_9121449_equil.vel
Info: CENTER OF MASS MOVING INITIALLY? NO
Info: DIELECTRIC             1
Info: EXCLUDE                SCALED ONE-FOUR
Info: 1-4 ELECTROSTATICS SCALED BY 0.833333
Info: MODIFIED 1-4 VDW PARAMETERS WILL BE USED
Info: DCD FILENAME           mobley_9121449_prod.dcd
Info: DCD FREQUENCY          100000
Info: DCD FIRST STEP         100000
Info: DCD FILE WILL CONTAIN UNIT CELL DATA
Info: XST FILENAME           mobley_9121449_prod.xst
Info: XST FREQUENCY          100000
Info: NO VELOCITY DCD OUTPUT
Info: NO FORCE DCD OUTPUT
Info: OUTPUT FILENAME        mobley_9121449_prod
Info: BINARY OUTPUT FILES WILL BE USED
Info: RESTART FILENAME       mobley_9121449_prod.restart
Info: RESTART FREQUENCY      100000
Info: BINARY RESTART FILES WILL BE USED
Info: CUTOFF                 9
Info: PAIRLIST DISTANCE      11
Info: PAIRLIST SHRINK RATE   0.01
Info: PAIRLIST GROW RATE     0.01
Info: PAIRLIST TRIGGER       0.3
Info: PAIRLISTS PER CYCLE    2
Info: PAIRLISTS ENABLED
Info: MARGIN                 2
Info: HYDROGEN GROUP CUTOFF  2.5
Info: PATCH DIMENSION        15.5
Info: ENERGY OUTPUT STEPS    100000
Info: ENERGY EVALUATION STEPS    100000
Info: OUTPUT ENERGY PRECISION 4
Info: CROSSTERM ENERGY INCLUDED IN DIHEDRAL
Info: TIMING OUTPUT STEPS    1000000
Info: PRESSURE OUTPUT STEPS  100000
Info: ALCHEMICAL FEP ON
Info: FEP CURRENT LAMBDA VALUE     1
Info: FEP COMPARISON LAMBDA VALUE  0.95
Info: FEP INTRA-ALCHEMICAL NON-BONDED INTERACTIONS WILL BE RETAINED
Info: FEP INTRA-ALCHEMICAL BONDED INTERACTIONS WILL BE RETAINED
Info: FEP VDW SHIFTING COEFFICIENT 5
Info: FEP ELEC. ACTIVE FOR ANNIHILATED PARTICLES BETWEEN LAMBDA = 0 AND LAMBDA = 0.5
Info: FEP ELEC. ACTIVE FOR EXNIHILATED PARTICLES BETWEEN LAMBDA = 0.5 AND LAMBDA = 1
Info: FEP VDW ACTIVE FOR ANNIHILATED PARTICLES BETWEEN LAMBDA = 0 AND LAMBDA = 1
Info: FEP VDW ACTIVE FOR EXNIHILATED PARTICLES BETWEEN LAMBDA = 0 AND LAMBDA = 1
Info: FEP BOND ACTIVE FOR ANNIHILATED PARTICLES BETWEEN LAMBDA = 1 AND LAMBDA = 1
Info: FEP BOND ACTIVE FOR EXNIHILATED PARTICLES BETWEEN LAMBDA = 0 AND LAMBDA = 0
Info: LANGEVIN DYNAMICS ACTIVE
Info: LANGEVIN TEMPERATURE   300
Info: LANGEVIN USING BBK INTEGRATOR
Info: LANGEVIN DAMPING COEFFICIENT IS 1 INVERSE PS
Info: LANGEVIN DYNAMICS APPLIED TO HYDROGENS
Info: LANGEVIN PISTON PRESSURE CONTROL ACTIVE
Info:        TARGET PRESSURE IS 1.01325 BAR
Info:     OSCILLATION PERIOD IS 50 FS
Info:             DECAY TIME IS 25 FS
Info:     PISTON TEMPERATURE IS 300 K
Info:       PRESSURE CONTROL IS GROUP-BASED
Info:    INITIAL STRAIN RATE IS 0.00029411 0.00029411 0.00029411
Info:       CELL FLUCTUATION IS ISOTROPIC
Info: PARTICLE MESH EWALD (PME) ACTIVE
Info: PME TOLERANCE               1e-06
Info: PME EWALD COEFFICIENT       0.348832
Info: PME INTERPOLATION ORDER     4
Info: PME GRID DIMENSIONS         32 36 32
Info: PME MAXIMUM GRID SPACING    1
Info: PME CALCULATION WILL BE PERFORMED ON GPU
Info: FULL ELECTROSTATIC EVALUATION FREQUENCY      2
Info: USING VERLET I (r-RESPA) MTS SCHEME.
Info: C1 SPLITTING OF LONG RANGE ELECTROSTATICS
Info: PLACING ATOMS IN PATCHES BY HYDROGEN GROUPS
Info: RIGID BONDS TO HYDROGEN : ALL
Info:         ERROR TOLERANCE : 1e-08
Info:          MAX ITERATIONS : 100
Info: RIGID WATER USING SETTLE ALGORITHM
Info: RANDOM NUMBER SEED     1742542046
Info: USE HYDROGEN BONDS?    NO
Info: Using AMBER format force field!
Info: AMBER PARM FILE        mobley_9121449.prmtop
Info: COORDINATE PDB         mobley_9121449.pdb
Info: Exclusions will be read from PARM file!
Info: SCNB (VDW SCALING)     2
Info: USING ARITHMETIC MEAN TO COMBINE L-J SIGMA PARAMETERS
Info: BINARY COORDINATES     mobley_9121449_equil.coor
Info: SUMMARY OF PARAMETERS:
Info: 7 BONDS
Info: 6 ANGLES
Info:   6 HARMONIC
Info:   0 COSINE-BASED
Info: 3 DIHEDRAL
Info: 0 IMPROPER
Info: 0 CROSSTERM
Info: 0 VDW
Info: 21 VDW_PAIRS
Info: 0 NBTHOLE_PAIRS
Info: To read alchdata from file: mobley_9121449.pdb
Info: To read alchflag data from column: 5
Info: STRUCTURE SUMMARY:
Info: 2944 ATOMS
Info: 2943 BONDS
Info: 14 ANGLES
Info: 13 DIHEDRALS
Info: 0 IMPROPERS
Info: 0 CROSSTERMS
Info: 2970 EXCLUSIONS
Info: 2940 RIGID BONDS
Info: ALCH: 0 ATOMS TO DISAPPEAR IN FINAL STATE
Info: ALCH: 10 ATOMS TO APPEAR IN FINAL STATE
Info: 5892 DEGREES OF FREEDOM
Info: 982 HYDROGEN GROUPS
Info: 4 ATOMS IN LARGEST HYDROGEN GROUP
Info: 982 MIGRATION GROUPS
Info: 4 ATOMS IN LARGEST MIGRATION GROUP
Info: TOTAL MASS = 17673.7 amu
Info: TOTAL CHARGE = 1.16415e-08 e
Info: MASS DENSITY = 0.959904 g/cm^3
Info: ATOM DENSITY = 0.0962893 atoms/A^3
Info: ADDED 0 IMPLICIT EXCLUSIONS
Info: NONBONDED TABLE R-SQUARED SPACING: 0.0625
Info: NONBONDED TABLE SIZE: 705 POINTS
Info: REMOVING COM VELOCITY 0.0250559 -0.107286 0.075049
Info: Use 3D box decompostion in PME FFT.
Info: Updated CUDA force table with 4096 elements.
Info: Updated CUDA LJ table with 6 x 6 elements.
Info: Found 13 unique exclusion lists needing 20 bytes
TCL: Running for 1500000 steps
ETITLE: TS BOND ANGLE DIHED IMPRP ELECT VDW BOUNDARY MISC KINETIC TOTAL TEMP POTENTIAL TOTALAVG TEMPAVG PRESSURE GPRESSURE VOLUME PRESSAVG GPRESSAVG
ENERGY: 0 1.0946 4.0721 0.3899 0.0000 -10687.7464 1480.2323 0.0000 0.0000 1677.8433 -7524.1143 286.6019 -9201.9575 -7524.1143 286.6019 316.6494 398.2477 30574.5220 316.6494 398.2477
ENERGY: 300000 0.9930 4.7454 1.8109 0.0000 -10686.1855 1435.6219 0.0000 0.0000 1767.4820 -7475.5323 301.9136 -9243.0143 -7520.6783 295.2048 251.4753 331.6716 29921.4202 161.0761 231.3965
ENERGY: 600000 1.7085 5.8942 0.0814 0.0000 -10696.2181 1442.3900 0.0000 0.0000 1785.1132 -7461.0309 304.9253 -9246.1441 -7507.4189 297.9235 164.5172 223.6576 30273.1213 103.5341 168.2501
ENERGY: 900000 2.7198 3.5656 0.0185 0.0000 -10581.0442 1381.7559 0.0000 0.0000 1745.9576 -7447.0269 298.2369 -9192.9845 -7507.8199 297.7263 -490.2253 -391.3957 30702.7416 100.0638 170.0529
ENERGY: 1200000 0.8995 3.1573 0.0117 0.0000 -10678.0796 1398.6952 0.0000 0.0000 1747.4564 -7527.8595 298.4929 -9275.3159 -7505.1628 297.7777 -407.3772 -346.7374 30372.7176 43.6481 107.6806
ENERGY: 1500000 0.7538 2.8235 0.0273 0.0000 -10612.8334 1386.1917 0.0000 0.0000 1799.2600 -7423.7770 307.3418 -9223.0370 -7495.6896 298.7927 -338.4949 -278.1857 30544.1267 43.5807 106.5565
TCL: Running FEP window   2: Lambda1 0.95   Lambda2 0.8999999999999999 [dLambda -0.050000000000000044]
TCL: Setting parameter firsttimestep to 0
TCL: Setting parameter alchLambda to 0.95
Info: NONBONDED TABLE R-SQUARED SPACING: 0.0625
Info: NONBONDED TABLE SIZE: 705 POINTS
TCL: Setting parameter alchLambda2 to 0.8999999999999999
Info: NONBONDED TABLE R-SQUARED SPACING: 0.0625
Info: NONBONDED TABLE SIZE: 705 POINTS
TCL: Running for 1500000 steps
ETITLE: TS BOND ANGLE DIHED IMPRP ELECT VDW BOUNDARY MISC KINETIC TOTAL TEMP POTENTIAL TOTALAVG TEMPAVG PRESSURE GPRESSURE VOLUME PRESSAVG GPRESSAVG
ENERGY: 0 0.7538 2.8235 0.0273 0.0000 -10612.6282 1386.6429 0.0000 0.0000 1798.4197 -7423.9610 307.1982 -9222.3807 -7423.9610 307.1982 -348.6269 -278.5680 30544.1267 -348.6269 -278.5680
ENERGY: 300000 1.8129 4.2456 1.6163 0.0000 -10699.9194 1430.4144 0.0000 0.0000 1750.7267 -7511.1036 299.0515 -9261.8303 -7461.4871 304.2276 -61.5569 23.1500 30241.8390 -27.9370 30.0428
ENERGY: 600000 1.2173 3.1647 0.3306 0.0000 -10706.7654 1440.3708 0.0000 0.0000 1782.3149 -7479.3672 304.4473 -9261.6820 -7471.6339 302.5753 -152.4332 -46.1772 30401.1099 -253.7770 -188.9524
ENERGY: 900000 0.2646 4.9633 0.0757 0.0000 -10787.4989 1504.6820 0.0000 0.0000 1795.6960 -7481.8173 306.7330 -9277.5133 -7463.8557 304.3552 168.2215 282.7603 30683.8756 -147.0758 -76.8791
ENERGY: 1200000 0.5966 2.0746 0.6990 0.0000 -10662.1696 1447.5462 0.0000 0.0000 1793.9069 -7417.3461 306.4274 -9211.2530 -7449.4699 304.1426 499.7994 522.2885 29915.0496 25.9753 93.1832
ENERGY: 1500000 1.4604 4.6908 0.0868 0.0000 -10689.1844 1423.2317 0.0000 0.0000 1747.4374 -7512.2772 298.4897 -9259.7147 -7458.5398 303.0859 -153.6778 -97.0559 30246.5630 -1.9265 64.1013
TCL: Running FEP window   3: Lambda1 0.8999999999999999 Lambda2 0.8499999999999999 [dLambda -0.050000000000000044]
TCL: Setting parameter firsttimestep to 0
TCL: Setting parameter alchLambda to 0.8999999999999999
Info: NONBONDED TABLE R-SQUARED SPACING: 0.0625
Info: NONBONDED TABLE SIZE: 705 POINTS
TCL: Setting parameter alchLambda2 to 0.8499999999999999
Info: NONBONDED TABLE R-SQUARED SPACING: 0.0625
Info: NONBONDED TABLE SIZE: 705 POINTS
TCL: Running for 1500000 steps
ETITLE: TS BOND ANGLE DIHED IMPRP ELECT VDW BOUNDARY MISC KINETIC TOTAL TEMP POTENTIAL TOTALAVG TEMPAVG PRESSURE GPRESSURE VOLUME PRESSAVG GPRESSAVG
ENERGY: 0 1.4604 4.6908 0.0868 0.0000 -10688.8958 1422.7271 0.0000 0.0000 1746.5611 -7513.3695 298.3400 -9259.9306 -7513.3695 298.3400 -198.7547 -112.6870 30246.5630 -198.7547 -112.6870
ENERGY: 300000 0.5340 2.4367 0.9875 0.0000 -10729.7952 1485.3704 0.0000 0.0000 1795.0145 -7445.4521 306.6166 -9240.4667 -7471.9136 302.3125 572.3127 631.0275 30169.5048 -245.5389 -177.8513
ENERGY: 600000 0.5613 2.7516 0.1346 0.0000 -10863.8865 1498.9668 0.0000 0.0000 1746.5359 -7614.9362 298.3357 -9361.4721 -7479.7697 301.5422 136.4894 248.0548 30286.3157 -196.7872 -110.6249
ENERGY: 900000 1.1190 2.9122 0.0218 0.0000 -10839.4511 1518.0144 0.0000 0.0000 1777.4168 -7539.9668 303.6106 -9317.3836 -7470.2442 301.4888 690.9688 720.5093 29979.5312 -55.0320 18.4665
ENERGY: 1200000 1.0774 3.1759 0.2434 0.0000 -10583.7348 1389.3247 0.0000 0.0000 1776.6491 -7413.2644 303.4795 -9189.9135 -7454.2697 301.2981 -229.3118 -110.6681 30297.5601 -131.7483 -60.3925
ENERGY: 1500000 2.0598 3.4047 0.0348 0.0000 -10624.6186 1334.8531 0.0000 0.0000 1728.1780 -7556.0881 295.1998 -9284.2661 -7461.0320 301.8531 -891.3042 -835.3058 30336.3816 -105.1211 -38.9755
TCL: Running FEP window   4: Lambda1 0.8499999999999999 Lambda2 0.7999999999999998 [dLambda -0.050000000000000044]
TCL: Setting parameter firsttimestep to 0
TCL: Setting parameter alchLambda to 0.8499999999999999
Info: NONBONDED TABLE R-SQUARED SPACING: 0.0625
Info: NONBONDED TABLE SIZE: 705 POINTS
TCL: Setting parameter alchLambda2 to 0.7999999999999998
Info: NONBONDED TABLE R-SQUARED SPACING: 0.0625
Info: NONBONDED TABLE SIZE: 705 POINTS
TCL: Running for 1500000 steps
ETITLE: TS BOND ANGLE DIHED IMPRP ELECT VDW BOUNDARY MISC KINETIC TOTAL TEMP POTENTIAL TOTALAVG TEMPAVG PRESSURE GPRESSURE VOLUME PRESSAVG GPRESSAVG
ENERGY: 0 2.0598 3.4047 0.0348 0.0000 -10624.3951 1335.2265 0.0000 0.0000 1727.2900 -7556.3792 295.0482 -9283.6692 -7556.3792 295.0482 -928.5591 -838.4549 30336.3816 -928.5591 -838.4549
ENERGY: 300000 3.6238 5.3396 0.1376 0.0000 -10697.8312 1425.6740 0.0000 0.0000 1724.9272 -7538.1289 294.6446 -9263.0562 -7511.5834 294.1594 -4.7189 48.1900 29954.8387 -460.7653 -397.3684
ENERGY: 600000 0.5441 4.9620 0.0501 0.0000 -10677.0687 1513.6260 0.0000 0.0000 1730.0727 -7427.8138 295.5235 -9157.8865 -7469.8707 297.8370 799.4808 867.1414 30451.5605 -196.8156 -143.8038
ENERGY: 900000 0.6848 4.4043 0.0465 0.0000 -10751.0362 1493.7708 0.0000 0.0000 1697.5742 -7554.5557 289.9722 -9252.1298 -7489.0799 297.4621 433.0492 531.6279 29987.4813 -67.9421 -6.2874
ENERGY: 1200000 0.3342 3.1746 0.0632 0.0000 -10618.9737 1465.8770 0.0000 0.0000 1736.8367 -7412.6880 296.6789 -9149.5247 -7485.0263 298.1155 466.0077 498.8043 30334.5703 -36.4878 18.0984
ENERGY: 1500000 0.7005 3.4491 0.1181 0.0000 -10605.9516 1347.2355 0.0000 0.0000 1707.4705 -7546.9780 291.6627 -9254.4485 -7477.9542 298.0105 -635.9623 -566.1742 30123.6634 -78.4383 -22.2675
TCL: Running FEP window   5: Lambda1 0.7999999999999998 Lambda2 0.7499999999999998 [dLambda -0.050000000000000044]
TCL: Setting parameter firsttimestep to 0
TCL: Setting parameter alchLambda to 0.7999999999999998
Info: NONBONDED TABLE R-SQUARED SPACING: 0.0625
Info: NONBONDED TABLE SIZE: 705 POINTS
TCL: Setting parameter alchLambda2 to 0.7499999999999998
Info: NONBONDED TABLE R-SQUARED SPACING: 0.0625
Info: NONBONDED TABLE SIZE: 705 POINTS
TCL: Running for 1500000 steps
ETITLE: TS BOND ANGLE DIHED IMPRP ELECT VDW BOUNDARY MISC KINETIC TOTAL TEMP POTENTIAL TOTALAVG TEMPAVG PRESSURE GPRESSURE VOLUME PRESSAVG GPRESSAVG
ENERGY: 0 0.7005 3.4491 0.1181 0.0000 -10605.6972 1347.7771 0.0000 0.0000 1706.5738 -7547.0786 291.5095 -9253.6524 -7547.0786 291.5095 -628.4211 -567.9672 30123.6634 -628.4211 -567.9672
ENERGY: 300000 0.7107 3.3062 0.0359 0.0000 -10661.2364 1436.1155 0.0000 0.0000 1750.4612 -7470.6070 299.0062 -9221.0682 -7514.4775 300.4087 -137.6086 -58.1852 30542.9318 -327.3580 -254.3220
ENERGY: 600000 0.4492 7.6044 0.4542 0.0000 -10916.8264 1536.3899 0.0000 0.0000 1767.8295 -7604.0993 301.9729 -9371.9288 -7525.9325 301.3739 484.1459 552.6077 30095.8837 -200.7324 -130.6058
ENERGY: 900000 1.6523 4.2371 0.0284 0.0000 -10727.9910 1459.8254 0.0000 0.0000 1840.9615 -7421.2863 314.4650 -9262.2478 -7509.8977 303.4917 220.0382 243.3128 30225.5675 -78.7875 -9.8727
ENERGY: 1200000 0.9256 4.6733 0.0615 0.0000 -10791.8547 1447.8116 0.0000 0.0000 1741.8449 -7596.5378 297.5344 -9338.3827 -7513.0112 302.7510 -159.6373 -155.6646 30335.1259 -132.2663 -65.6962
ENERGY: 1500000 0.4535 2.5846 1.5985 0.0000 -10774.3578 1499.3272 0.0000 0.0000 1812.1403 -7458.2538 309.5419 -9270.3941 -7514.3366 302.4493 471.8519 577.8027 29877.4472 -129.8616 -57.4412
TCL: Running FEP window   6: Lambda1 0.7499999999999998 Lambda2 0.6999999999999997 [dLambda -0.050000000000000044]
TCL: Setting parameter firsttimestep to 0
TCL: Setting parameter alchLambda to 0.7499999999999998
Info: NONBONDED TABLE R-SQUARED SPACING: 0.0625
Info: NONBONDED TABLE SIZE: 705 POINTS
TCL: Setting parameter alchLambda2 to 0.6999999999999997
Info: NONBONDED TABLE R-SQUARED SPACING: 0.0625
Info: NONBONDED TABLE SIZE: 705 POINTS
TCL: Running for 1500000 steps
ETITLE: TS BOND ANGLE DIHED IMPRP ELECT VDW BOUNDARY MISC KINETIC TOTAL TEMP POTENTIAL TOTALAVG TEMPAVG PRESSURE GPRESSURE VOLUME PRESSAVG GPRESSAVG
ENERGY: 0 0.4535 2.5846 1.5985 0.0000 -10774.4070 1499.2067 0.0000 0.0000 1811.2759 -7459.2878 309.3943 -9270.5637 -7459.2878 309.3943 493.3725 567.0739 29877.4472 493.3725 567.0739
ENERGY: 300000 1.4806 4.5376 0.1462 0.0000 -10667.6994 1382.9982 0.0000 0.0000 1766.4539 -7512.0829 301.7380 -9278.5368 -7465.4073 304.6262 -789.8851 -674.0257 30503.6962 250.4054 331.8733
ENERGY: 600000 0.0328 5.6606 2.1846 0.0000 -10676.1686 1433.1712 0.0000 0.0000 1776.3551 -7458.7643 303.4292 -9235.1194 -7483.3472 303.2833 480.6343 530.2716 29512.6534 178.8126 258.2933
ENERGY: 900000 0.4772 2.8864 0.0199 0.0000 -10632.6453 1427.9747 0.0000 0.0000 1739.0363 -7462.2507 297.0546 -9201.2870 -7470.9759 302.1969 14.4174 69.4445 30251.1527 107.4318 189.6589
ENERGY: 1200000 0.1074 4.3492 0.2029 0.0000 -10834.1705 1495.3665 0.0000 0.0000 1749.0888 -7585.0558 298.7717 -9334.1445 -7472.7961 301.6785 595.0923 647.2521 29702.3935 174.1270 251.7911
ENERGY: 1500000 1.8096 4.6818 0.2612 0.0000 -10768.0649 1490.5036 0.0000 0.0000 1703.5834 -7567.2252 290.9987 -9270.8086 -7479.9579 300.6490 337.0135 349.0785 30304.8318 133.8641 211.5548
TCL: Running FEP window   7: Lambda1 0.6999999999999997 Lambda2 0.6499999999999997 [dLambda -0.050000000000000044]
TCL: Setting parameter firsttimestep to 0
TCL: Setting parameter alchLambda to 0.6999999999999997
Info: NONBONDED TABLE R-SQUARED SPACING: 0.0625
Info: NONBONDED TABLE SIZE: 705 POINTS
TCL: Setting parameter alchLambda2 to 0.6499999999999997
Info: NONBONDED TABLE R-SQUARED SPACING: 0.0625
Info: NONBONDED TABLE SIZE: 705 POINTS
TCL: Running for 1500000 steps
ETITLE: TS BOND ANGLE DIHED IMPRP ELECT VDW BOUNDARY MISC KINETIC TOTAL TEMP POTENTIAL TOTALAVG TEMPAVG PRESSURE GPRESSURE VOLUME PRESSAVG GPRESSAVG
ENERGY: 0 1.8096 4.6818 0.2612 0.0000 -10767.9679 1490.0752 0.0000 0.0000 1702.6797 -7568.4603 290.8443 -9271.1400 -7568.4603 290.8443 251.4104 337.1661 30304.8318 251.4104 337.1661
ENERGY: 300000 2.1297 3.3180 0.0999 0.0000 -10574.8864 1353.1290 0.0000 0.0000 1788.7194 -7427.4905 305.5413 -9216.2099 -7500.4302 298.2561 -288.2521 -299.7069 30084.9643 -282.4766 -223.0340
ENERGY: 600000 1.4786 4.5520 0.2338 0.0000 -10814.5958 1529.1537 0.0000 0.0000 1737.5317 -7541.6460 296.7976 -9279.1777 -7508.8275 299.1931 486.0846 562.1438 30069.9606 -249.6801 -181.9902
ENERGY: 900000 0.6832 3.8899 0.0610 0.0000 -10745.3469 1431.2450 0.0000 0.0000 1740.0435 -7569.4244 297.2266 -9309.4678 -7515.3114 298.4849 -441.7631 -341.1040 30457.2734 -219.7687 -146.6209
ENERGY: 1200000 1.3358 5.7786 0.0649 0.0000 -10601.7865 1388.9883 0.0000 0.0000 1698.0489 -7507.5700 290.0533 -9205.6190 -7500.3025 299.3845 -194.1139 -169.4853 30337.5450 -269.5568 -197.3911
ENERGY: 1500000 0.6979 6.0036 0.9490 0.0000 -10664.1793 1410.4479 0.0000 0.0000 1720.7429 -7525.3380 293.9298 -9246.0809 -7505.9993 298.8669 -336.6257 -254.8483 30363.0264 -275.8926 -201.2401
TCL: Running FEP window   8: Lambda1 0.6499999999999997 Lambda2 0.5999999999999996 [dLambda -0.050000000000000044]
TCL: Setting parameter firsttimestep to 0
TCL: Setting parameter alchLambda to 0.6499999999999997
Info: NONBONDED TABLE R-SQUARED SPACING: 0.0625
Info: NONBONDED TABLE SIZE: 705 POINTS
TCL: Setting parameter alchLambda2 to 0.5999999999999996
Info: NONBONDED TABLE R-SQUARED SPACING: 0.0625
Info: NONBONDED TABLE SIZE: 705 POINTS
TCL: Running for 1500000 steps
ETITLE: TS BOND ANGLE DIHED IMPRP ELECT VDW BOUNDARY MISC KINETIC TOTAL TEMP POTENTIAL TOTALAVG TEMPAVG PRESSURE GPRESSURE VOLUME PRESSAVG GPRESSAVG
ENERGY: 0 0.6979 6.0036 0.9490 0.0000 -10663.7840 1409.8863 0.0000 0.0000 1719.8494 -7526.3978 293.7772 -9246.2472 -7526.3978 293.7772 -356.9783 -268.8679 30363.0264 -356.9783 -268.8679
ENERGY: 300000 0.1843 4.6150 0.0578 0.0000 -10804.9549 1460.6118 0.0000 0.0000 1728.8126 -7610.6734 295.3082 -9339.4860 -7544.8193 295.1244 -53.7710 -11.3610 29978.0687 -98.0829 -25.9377
ENERGY: 600000 1.2418 5.2694 0.2418 0.0000 -10796.8754 1519.5357 0.0000 0.0000 1765.1691 -7505.4175 301.5185 -9270.5866 -7513.3692 298.8576 645.4700 694.7699 29966.1229 6.6434 80.5256
ENERGY: 900000 0.6263 5.2775 0.0448 0.0000 -10614.4836 1399.7398 0.0000 0.0000 1768.2512 -7440.5441 302.0450 -9208.7953 -7497.1326 300.5132 -333.5633 -288.4475 30746.1330 -81.1009 -6.3959
ENERGY: 1200000 0.0179 3.3347 0.0904 0.0000 -10658.7831 1416.5552 0.0000 0.0000 1732.6714 -7506.1135 295.9674 -9238.7849 -7495.7770 300.0415 -130.3448 -67.3404 30188.8015 -113.5153 -41.5009
ENERGY: 1500000 3.1826 3.9541 0.0173 0.0000 -10726.1063 1443.6514 0.0000 0.0000 1781.6025 -7493.6984 304.3256 -9275.3009 -7491.0133 299.6429 -128.6614 -60.2005 30476.1015 -23.9597 51.9384
TCL: Running FEP window   9: Lambda1 0.5999999999999996 Lambda2 0.5499999999999996 [dLambda -0.050000000000000044]
TCL: Setting parameter firsttimestep to 0
TCL: Setting parameter alchLambda to 0.5999999999999996
Info: NONBONDED TABLE R-SQUARED SPACING: 0.0625
Info: NONBONDED TABLE SIZE: 705 POINTS
TCL: Setting parameter alchLambda2 to 0.5499999999999996
Info: NONBONDED TABLE R-SQUARED SPACING: 0.0625
Info: NONBONDED TABLE SIZE: 705 POINTS
TCL: Running for 1500000 steps
ETITLE: TS BOND ANGLE DIHED IMPRP ELECT VDW BOUNDARY MISC KINETIC TOTAL TEMP POTENTIAL TOTALAVG TEMPAVG PRESSURE GPRESSURE VOLUME PRESSAVG GPRESSAVG
ENERGY: 0 3.1826 3.9541 0.0173 0.0000 -10725.9509 1443.5304 0.0000 0.0000 1780.7443 -7494.5222 304.1790 -9275.2665 -7494.5222 304.1790 -143.7843 -66.5923 30476.1015 -143.7843 -66.5923
ENERGY: 300000 0.4544 2.9321 0.1738 0.0000 -10626.6703 1402.2605 0.0000 0.0000 1742.3020 -7478.5476 297.6124 -9220.8496 -7512.0967 299.2188 -38.4009 16.1103 29926.6900 3.6860 86.8617
ENERGY: 600000 1.9333 1.9026 0.0186 0.0000 -10733.6827 1496.8740 0.0000 0.0000 1781.5627 -7451.3914 304.3188 -9232.9542 -7493.3316 301.3318 477.7243 564.0424 30206.0031 31.5439 115.5352
ENERGY: 900000 0.5754 3.0061 0.0295 0.0000 -10634.8685 1408.7600 0.0000 0.0000 1696.1077 -7526.3898 289.7217 -9222.4975 -7487.9640 299.4425 -404.6575 -373.5491 30618.4056 -86.5099 -16.0235
ENERGY: 1200000 1.2510 3.6765 0.0570 0.0000 -10671.1754 1485.3811 0.0000 0.0000 1755.4945 -7425.3153 299.8659 -9180.8098 -7491.1251 299.3761 287.7792 405.2255 30778.8267 -22.7045 57.1029
ENERGY: 1500000 0.9541 6.0311 0.0510 0.0000 -10634.4156 1458.9716 0.0000 0.0000 1784.8609 -7383.5469 304.8822 -9168.4078 -7481.3732 300.2735 206.9943 235.1391 30902.2056 69.9504 144.0012
TCL: Running FEP window  10: Lambda1 0.5499999999999996 Lambda2 0.4999999999999996 [dLambda -0.04999999999999999]
TCL: Setting parameter firsttimestep to 0
TCL: Setting parameter alchLambda to 0.5499999999999996
Info: NONBONDED TABLE R-SQUARED SPACING: 0.0625
Info: NONBONDED TABLE SIZE: 705 POINTS
TCL: Setting parameter alchLambda2 to 0.4999999999999996
Info: NONBONDED TABLE R-SQUARED SPACING: 0.0625
Info: NONBONDED TABLE SIZE: 705 POINTS
TCL: Running for 1500000 steps
ETITLE: TS BOND ANGLE DIHED IMPRP ELECT VDW BOUNDARY MISC KINETIC TOTAL TEMP POTENTIAL TOTALAVG TEMPAVG PRESSURE GPRESSURE VOLUME PRESSAVG GPRESSAVG
ENERGY: 0 0.9541 6.0311 0.0510 0.0000 -10634.4556 1458.7677 0.0000 0.0000 1783.9791 -7384.6726 304.7315 -9168.6517 -7384.6726 304.7315 148.1337 229.4169 30902.2056 148.1337 229.4169
ENERGY: 300000 1.2613 3.5762 0.4591 0.0000 -10481.4121 1319.3577 0.0000 0.0000 1745.5087 -7411.2491 298.1602 -9156.7578 -7464.9068 300.5737 -707.1623 -627.1873 30533.0018 -254.4170 -176.8956
ENERGY: 600000 0.7446 6.9644 2.1337 0.0000 -10574.1072 1321.3861 0.0000 0.0000 1743.1849 -7499.6935 297.7632 -9242.8783 -7478.8477 299.5350 -827.9896 -706.9421 30140.1527 -413.1583 -331.6511
ENERGY: 900000 0.4651 5.0765 0.2402 0.0000 -10592.6958 1384.2458 0.0000 0.0000 1815.8090 -7386.8592 310.1686 -9202.6682 -7461.5758 301.5563 -418.9463 -314.3053 30246.4730 -359.3300 -281.2891
ENERGY: 1200000 0.4735 3.8432 0.2812 0.0000 -10675.8834 1470.2004 0.0000 0.0000 1681.5632 -7519.5219 287.2373 -9201.0851 -7448.9798 301.5401 90.7997 162.2296 30610.3097 -194.9698 -126.9914
ENERGY: 1500000 0.7714 4.7333 0.0303 0.0000 -10728.5436 1451.0076 0.0000 0.0000 1822.5870 -7449.4139 311.3264 -9272.0009 -7450.0098 301.7717 156.9772 209.0891 30050.2623 -139.4634 -75.9165
TCL: Running FEP window  11: Lambda1 0.4999999999999996 Lambda2 0.4499999999999996 [dLambda -0.04999999999999999]
TCL: Setting parameter firsttimestep to 0
TCL: Setting parameter alchLambda to 0.4999999999999996
Info: NONBONDED TABLE R-SQUARED SPACING: 0.0625
Info: NONBONDED TABLE SIZE: 705 POINTS
TCL: Setting parameter alchLambda2 to 0.4499999999999996
Info: NONBONDED TABLE R-SQUARED SPACING: 0.0625
Info: NONBONDED TABLE SIZE: 705 POINTS
TCL: Running for 1500000 steps
ETITLE: TS BOND ANGLE DIHED IMPRP ELECT VDW BOUNDARY MISC KINETIC TOTAL TEMP POTENTIAL TOTALAVG TEMPAVG PRESSURE GPRESSURE VOLUME PRESSAVG GPRESSAVG
ENERGY: 0 0.7714 4.7333 0.0303 0.0000 -10728.4351 1450.3248 0.0000 0.0000 1821.7117 -7450.8635 311.1769 -9272.5752 -7450.8635 311.1769 99.2691 199.3894 30050.2623 99.2691 199.3894
ENERGY: 300000 0.5867 2.6893 0.2651 0.0000 -10641.0372 1392.7977 0.0000 0.0000 1741.6958 -7503.0026 297.5089 -9244.6984 -7485.6004 299.3068 -360.5015 -366.2083 30379.5218 196.7332 238.4413
ENERGY: 600000 2.0318 2.0965 0.1372 0.0000 -10627.0557 1424.7239 0.0000 0.0000 1782.9442 -7415.1221 304.5548 -9198.0663 -7467.5412 297.9246 45.8560 126.0120 30392.9805 120.4094 154.6052
ENERGY: 900000 0.5239 4.1970 0.0816 0.0000 -10620.0857 1424.5862 0.0000 0.0000 1766.2693 -7424.4277 301.7064 -9190.6970 -7465.3450 299.0210 -90.8513 -24.7738 30631.2139 50.0826 88.2438
ENERGY: 1200000 0.6913 2.3471 2.3158 0.0000 -10664.7750 1469.4000 0.0000 0.0000 1815.5152 -7374.5055 310.1184 -9190.0207 -7458.3782 299.6663 298.7062 374.0975 30633.6073 111.4108 153.5762
ENERGY: 1500000 0.2099 3.0294 0.4174 0.0000 -10587.1973 1385.5974 0.0000 0.0000 1759.0099 -7438.9334 300.4664 -9197.9433 -7460.5940 298.8304 -397.2765 -272.0176 30446.6776 44.3312 94.5443
TCL: Running FEP window  12: Lambda1 0.4499999999999996 Lambda2 0.39999999999999963 [dLambda -0.04999999999999999]
TCL: Setting parameter firsttimestep to 0
TCL: Setting parameter alchLambda to 0.4499999999999996
Info: NONBONDED TABLE R-SQUARED SPACING: 0.0625
Info: NONBONDED TABLE SIZE: 705 POINTS
TCL: Setting parameter alchLambda2 to 0.39999999999999963
Info: NONBONDED TABLE R-SQUARED SPACING: 0.0625
Info: NONBONDED TABLE SIZE: 705 POINTS
TCL: Running for 1500000 steps
ETITLE: TS BOND ANGLE DIHED IMPRP ELECT VDW BOUNDARY MISC KINETIC TOTAL TEMP POTENTIAL TOTALAVG TEMPAVG PRESSURE GPRESSURE VOLUME PRESSAVG GPRESSAVG
ENERGY: 0 0.2099 3.0294 0.4174 0.0000 -10587.1976 1385.5346 0.0000 0.0000 1758.1456 -7439.8607 300.3188 -9198.0063 -7439.8607 300.3188 -368.0147 -276.4673 30446.6776 -368.0147 -276.4673
ENERGY: 300000 0.5011 5.8826 0.0589 0.0000 -10719.7768 1439.4145 0.0000 0.0000 1704.7892 -7569.1306 291.2047 -9273.9197 -7490.7046 297.8449 -297.1775 -288.9261 30510.2829 -145.6092 -90.1665
ENERGY: 600000 0.0866 4.2918 0.2758 0.0000 -10669.5740 1433.1743 0.0000 0.0000 1779.4779 -7452.2676 303.9627 -9231.7455 -7483.1991 300.1887 -95.7035 -29.1491 30531.5207 -300.8832 -241.2855
ENERGY: 900000 1.5786 5.5858 0.4091 0.0000 -10558.1353 1337.4363 0.0000 0.0000 1722.5516 -7490.5739 294.2388 -9213.1255 -7474.7147 300.9411 -768.7160 -750.6893 30384.0296 -241.3428 -189.3920
ENERGY: 1200000 0.5416 6.0569 0.3472 0.0000 -10800.7846 1525.0688 0.0000 0.0000 1731.8249 -7536.9452 295.8228 -9268.7701 -7473.5305 299.6178 613.1059 642.5707 30053.0806 -230.8421 -179.9658
ENERGY: 1500000 0.2238 4.3397 0.0165 0.0000 -10711.9549 1486.6603 0.0000 0.0000 1710.9618 -7509.7528 292.2590 -9220.7146 -7479.8364 299.2524 442.8519 523.2668 30129.4030 -162.6539 -114.4316
TCL: Running FEP window  13: Lambda1 0.39999999999999963 Lambda2 0.34999999999999964 [dLambda -0.04999999999999999]
TCL: Setting parameter firsttimestep to 0
TCL: Setting parameter alchLambda to 0.39999999999999963
Info: NONBONDED TABLE R-SQUARED SPACING: 0.0625
Info: NONBONDED TABLE SIZE: 705 POINTS
TCL: Setting parameter alchLambda2 to 0.34999999999999964
Info: NONBONDED TABLE R-SQUARED SPACING: 0.0625
Info: NONBONDED TABLE SIZE: 705 POINTS
TCL: Running for 1500000 steps
ETITLE: TS BOND ANGLE DIHED IMPRP ELECT VDW BOUNDARY MISC KINETIC TOTAL TEMP POTENTIAL TOTALAVG TEMPAVG PRESSURE GPRESSURE VOLUME PRESSAVG GPRESSAVG
ENERGY: 0 0.2238 4.3397 0.0165 0.0000 -10711.9555 1487.0227 0.0000 0.0000 1710.1299 -7510.2230 292.1169 -9220.3529 -7510.2230 292.1169 434.2977 523.1464 30129.4030 434.2977 523.1464
ENERGY: 300000 0.8876 3.7865 1.5247 0.0000 -10662.8815 1413.3537 0.0000 0.0000 1714.3275 -7529.0015 292.8340 -9243.3290 -7508.5629 297.1452 -99.8763 -73.1865 29943.2766 102.6983 160.6198
ENERGY: 600000 0.4084 4.3445 0.0517 0.0000 -10644.6467 1442.3295 0.0000 0.0000 1755.8078 -7441.7048 299.9194 -9197.5126 -7494.1773 298.5604 182.3287 267.9217 30313.9142 140.3571 206.7583
ENERGY: 900000 1.3520 1.5720 0.0355 0.0000 -10591.7251 1370.2611 0.0000 0.0000 1786.8537 -7431.6509 305.2226 -9218.5046 -7488.8573 298.2653 -514.9987 -484.0097 30598.8048 122.3113 177.6341
ENERGY: 1200000 0.6156 2.4242 0.2422 0.0000 -10730.4897 1509.2737 0.0000 0.0000 1758.4908 -7459.4432 300.3777 -9217.9340 -7486.2953 299.3561 761.6482 754.1688 30276.2046 136.2125 190.2524
ENERGY: 1500000 1.6985 4.1672 0.6817 0.0000 -10557.5167 1440.4791 0.0000 0.0000 1771.7744 -7338.7157 302.6468 -9110.4901 -7488.3231 299.3139 319.2811 380.1524 30249.4533 104.2030 154.6155
TCL: Running FEP window  14: Lambda1 0.34999999999999964 Lambda2 0.29999999999999966 [dLambda -0.04999999999999999]
TCL: Setting parameter firsttimestep to 0
TCL: Setting parameter alchLambda to 0.34999999999999964
Info: NONBONDED TABLE R-SQUARED SPACING: 0.0625
Info: NONBONDED TABLE SIZE: 705 POINTS
TCL: Setting parameter alchLambda2 to 0.29999999999999966
Info: NONBONDED TABLE R-SQUARED SPACING: 0.0625
Info: NONBONDED TABLE SIZE: 705 POINTS
TCL: Running for 1500000 steps
ETITLE: TS BOND ANGLE DIHED IMPRP ELECT VDW BOUNDARY MISC KINETIC TOTAL TEMP POTENTIAL TOTALAVG TEMPAVG PRESSURE GPRESSURE VOLUME PRESSAVG GPRESSAVG
ENERGY: 0 1.6985 4.1672 0.6817 0.0000 -10557.5156 1440.8614 0.0000 0.0000 1770.9451 -7339.1618 302.5051 -9110.1068 -7339.1618 302.5051 300.4440 383.0077 30249.4533 300.4440 383.0077
ENERGY: 300000 0.8778 4.7810 2.3394 0.0000 -10779.2688 1423.4797 0.0000 0.0000 1783.0652 -7564.7256 304.5754 -9347.7908 -7468.8353 298.3459 -474.2922 -470.7817 30253.0117 -121.6342 -90.6355
ENERGY: 600000 0.4939 1.9548 0.0369 0.0000 -10689.1044 1457.4702 0.0000 0.0000 1772.1007 -7457.0479 302.7025 -9229.1486 -7472.0753 299.5875 82.6581 92.9528 30562.2009 31.4444 76.0908
ENERGY: 900000 3.5419 3.9644 0.1568 0.0000 -10734.4692 1449.7296 0.0000 0.0000 1720.1224 -7556.9540 293.8238 -9277.0765 -7481.4695 299.1065 -169.7339 -150.9282 30616.2292 -34.5724 18.8593
ENERGY: 1200000 2.0280 4.3896 0.1592 0.0000 -10632.8231 1464.9089 0.0000 0.0000 1678.3990 -7482.9384 286.6968 -9161.3374 -7475.6141 298.3460 242.4530 333.0073 30246.8161 -17.7178 43.2448
ENERGY: 1500000 0.7711 6.8174 0.8618 0.0000 -10647.1855 1455.9112 0.0000 0.0000 1720.0597 -7462.7643 293.8131 -9182.8240 -7471.0755 299.0660 -13.7410 66.1157 30572.0512 -55.0285 10.0621
TCL: Running FEP window  15: Lambda1 0.29999999999999966 Lambda2 0.24999999999999967 [dLambda -0.04999999999999999]
TCL: Setting parameter firsttimestep to 0
TCL: Setting parameter alchLambda to 0.29999999999999966
Info: NONBONDED TABLE R-SQUARED SPACING: 0.0625
Info: NONBONDED TABLE SIZE: 705 POINTS
TCL: Setting parameter alchLambda2 to 0.24999999999999967
Info: NONBONDED TABLE R-SQUARED SPACING: 0.0625
Info: NONBONDED TABLE SIZE: 705 POINTS
TCL: Running for 1500000 steps
ETITLE: TS BOND ANGLE DIHED IMPRP ELECT VDW BOUNDARY MISC KINETIC TOTAL TEMP POTENTIAL TOTALAVG TEMPAVG PRESSURE GPRESSURE VOLUME PRESSAVG GPRESSAVG
ENERGY: 0 0.7711 6.8174 0.8618 0.0000 -10647.1843 1455.9145 0.0000 0.0000 1719.1617 -7463.6579 293.6597 -9182.8195 -7463.6579 293.6597 -9.6226 62.1290 30572.0512 -9.6226 62.1290
ENERGY: 300000 2.9407 2.3612 0.7650 0.0000 -10699.3922 1434.3263 0.0000 0.0000 1818.6451 -7440.3539 310.6530 -9258.9990 -7471.9167 302.0291 -62.3191 -27.6497 30199.1825 -159.9112 -91.1504
ENERGY: 600000 0.5066 3.6778 0.3295 0.0000 -10733.3536 1469.6956 0.0000 0.0000 1774.3552 -7484.7890 303.0876 -9259.1442 -7471.5654 301.3465 64.5687 149.0760 30100.6591 -0.4384 64.4720
ENERGY: 900000 1.2250 4.8442 0.0657 0.0000 -10751.8554 1482.4760 0.0000 0.0000 1730.3749 -7532.8696 295.5751 -9263.2445 -7475.2987 300.7188 433.8455 517.2590 29890.9103 17.5956 87.7420
ENERGY: 1200000 0.1777 1.7123 0.0259 0.0000 -10703.5898 1452.7439 0.0000 0.0000 1727.7861 -7521.1439 295.1329 -9248.9300 -7486.6714 298.6539 81.0052 135.3447 30377.1227 63.0718 129.8087
ENERGY: 1500000 1.4312 3.7335 0.1938 0.0000 -10526.7847 1293.3965 0.0000 0.0000 1833.0552 -7394.9746 313.1145 -9228.0298 -7482.9281 299.2905 -1093.6512 -1019.1072 30360.0092 -52.3477 16.6938
TCL: Running FEP window  16: Lambda1 0.24999999999999967 Lambda2 0.19999999999999968 [dLambda -0.04999999999999999]
TCL: Setting parameter firsttimestep to 0
TCL: Setting parameter alchLambda to 0.24999999999999967
Info: NONBONDED TABLE R-SQUARED SPACING: 0.0625
Info: NONBONDED TABLE SIZE: 705 POINTS
TCL: Setting parameter alchLambda2 to 0.19999999999999968
Info: NONBONDED TABLE R-SQUARED SPACING: 0.0625
Info: NONBONDED TABLE SIZE: 705 POINTS
TCL: Running for 1500000 steps
ETITLE: TS BOND ANGLE DIHED IMPRP ELECT VDW BOUNDARY MISC KINETIC TOTAL TEMP POTENTIAL TOTALAVG TEMPAVG PRESSURE GPRESSURE VOLUME PRESSAVG GPRESSAVG
ENERGY: 0 1.4312 3.7335 0.1938 0.0000 -10526.7829 1293.6826 0.0000 0.0000 1832.1642 -7395.5776 312.9623 -9227.7418 -7395.5776 312.9623 -1100.2167 -1019.3627 30360.0092 -1100.2167 -1019.3627
ENERGY: 300000 0.7965 3.0308 0.6978 0.0000 -10728.2437 1479.1051 0.0000 0.0000 1744.2626 -7500.3510 297.9473 -9244.6136 -7448.3260 303.6844 153.2292 225.6750 30403.3497 -212.1948 -149.5293
ENERGY: 600000 3.6524 3.9784 0.1634 0.0000 -10781.1308 1525.7830 0.0000 0.0000 1764.9578 -7482.5959 301.4824 -9247.5537 -7467.0728 300.9255 467.0725 583.6781 30308.0553 0.3673 67.1877
ENERGY: 900000 1.2998 3.3795 0.3171 0.0000 -10597.4284 1404.9106 0.0000 0.0000 1793.1921 -7394.3294 306.3053 -9187.5215 -7479.2003 301.1834 -424.6894 -325.6192 30676.5686 45.9417 115.0521
ENERGY: 1200000 0.6373 3.1425 0.0142 0.0000 -10780.9288 1514.7360 0.0000 0.0000 1696.3039 -7566.0949 289.7552 -9262.3988 -7478.3798 300.0704 389.7045 483.4856 30345.5375 4.5169 76.4325
ENERGY: 1500000 2.0942 3.7570 0.0663 0.0000 -10853.0298 1525.4230 0.0000 0.0000 1715.6177 -7606.0715 293.0543 -9321.6892 -7486.4455 299.5692 435.3687 493.8333 29918.9230 -43.0901 30.3266
TCL: Running FEP window  17: Lambda1 0.19999999999999968 Lambda2 0.1499999999999997 [dLambda -0.04999999999999999]
TCL: Setting parameter firsttimestep to 0
TCL: Setting parameter alchLambda to 0.19999999999999968
Info: NONBONDED TABLE R-SQUARED SPACING: 0.0625
Info: NONBONDED TABLE SIZE: 705 POINTS
TCL: Setting parameter alchLambda2 to 0.1499999999999997
Info: NONBONDED TABLE R-SQUARED SPACING: 0.0625
Info: NONBONDED TABLE SIZE: 705 POINTS
TCL: Running for 1500000 steps
ETITLE: TS BOND ANGLE DIHED IMPRP ELECT VDW BOUNDARY MISC KINETIC TOTAL TEMP POTENTIAL TOTALAVG TEMPAVG PRESSURE GPRESSURE VOLUME PRESSAVG GPRESSAVG
ENERGY: 0 2.0942 3.7570 0.0663 0.0000 -10853.0304 1525.2862 0.0000 0.0000 1714.7278 -7607.0989 292.9023 -9321.8267 -7607.0989 292.9023 388.8738 490.6316 29918.9230 388.8738 490.6316
ENERGY: 300000 0.4038 7.7846 0.2724 0.0000 -10418.0526 1245.6165 0.0000 0.0000 1741.9620 -7422.0133 297.5544 -9163.9754 -7525.8004 297.7846 -1534.7754 -1383.9872 30462.3624 -580.9421 -473.2338
ENERGY: 600000 0.3111 3.0977 0.0686 0.0000 -10662.0677 1401.0060 0.0000 0.0000 1680.2259 -7577.3584 287.0089 -9257.5843 -7522.7843 298.4840 -313.1415 -249.4228 30024.7160 -519.6011 -423.4799
ENERGY: 900000 1.2857 4.6169 0.6738 0.0000 -10693.7547 1415.2689 0.0000 0.0000 1721.4161 -7550.4933 294.0448 -9271.9094 -7514.9218 298.4257 -348.7878 -265.4181 30125.9876 -448.3926 -355.9458
ENERGY: 1200000 0.1853 6.0403 0.3036 0.0000 -10670.1603 1424.4950 0.0000 0.0000 1775.6751 -7463.4610 303.3131 -9239.1361 -7503.7151 298.9372 -209.7031 -168.7285 30491.4111 -452.4634 -370.4078
ENERGY: 1500000 0.8545 2.8860 0.2037 0.0000 -10640.5379 1404.6491 0.0000 0.0000 1756.5978 -7475.3468 300.0544 -9231.9446 -7496.8940 298.9629 -359.9891 -229.0666 30476.8311 -319.1148 -234.6872
TCL: Running FEP window  18: Lambda1 0.1499999999999997 Lambda2 0.09999999999999969 [dLambda -0.05 ]
TCL: Setting parameter firsttimestep to 0
TCL: Setting parameter alchLambda to 0.1499999999999997
Info: NONBONDED TABLE R-SQUARED SPACING: 0.0625
Info: NONBONDED TABLE SIZE: 705 POINTS
TCL: Setting parameter alchLambda2 to 0.09999999999999969
Info: NONBONDED TABLE R-SQUARED SPACING: 0.0625
Info: NONBONDED TABLE SIZE: 705 POINTS
TCL: Running for 1500000 steps
ETITLE: TS BOND ANGLE DIHED IMPRP ELECT VDW BOUNDARY MISC KINETIC TOTAL TEMP POTENTIAL TOTALAVG TEMPAVG PRESSURE GPRESSURE VOLUME PRESSAVG GPRESSAVG
ENERGY: 0 0.8545 2.8860 0.2037 0.0000 -10640.5380 1404.2933 0.0000 0.0000 1755.7161 -7476.5843 299.9038 -9232.3005 -7476.5843 299.9038 -309.6407 -234.4201 30476.8311 -309.6407 -234.4201
ENERGY: 300000 0.0871 2.4222 0.0249 0.0000 -10462.7999 1383.6845 0.0000 0.0000 1712.6776 -7363.9035 292.5521 -9076.5811 -7418.3990 301.7613 -111.5427 19.8908 30472.2592 -205.3507 -105.7486
ENERGY: 600000 1.2935 2.7114 0.0408 0.0000 -10678.9048 1437.8400 0.0000 0.0000 1758.3053 -7478.7137 300.3461 -9237.0191 -7440.3124 303.0525 -126.4761 -66.3545 30657.9547 -43.3036 35.2219
ENERGY: 900000 0.8949 6.1601 0.1516 0.0000 -10730.9216 1387.2365 0.0000 0.0000 1710.1843 -7626.2942 292.1262 -9336.4785 -7477.6374 301.4823 -303.1024 -232.2109 29508.0372 -151.7817 -66.9086
ENERGY: 1200000 0.4530 3.0996 0.0489 0.0000 -10585.0416 1349.9499 0.0000 0.0000 1771.3464 -7460.1438 302.5737 -9231.4902 -7477.1553 301.7607 -576.3701 -502.4228 30162.8852 -159.0014 -78.9413
ENERGY: 1500000 0.7619 2.8824 0.4383 0.0000 -10832.8222 1547.4210 0.0000 0.0000 1700.1556 -7581.1631 290.4132 -9281.3186 -7481.3174 300.7796 826.7429 867.5325 29760.9837 -31.4789 44.9404
TCL: Running FEP window  19: Lambda1 0.09999999999999969 Lambda2 0.049999999999999684 [dLambda -0.05 ]
TCL: Setting parameter firsttimestep to 0
TCL: Setting parameter alchLambda to 0.09999999999999969
Info: NONBONDED TABLE R-SQUARED SPACING: 0.0625
Info: NONBONDED TABLE SIZE: 705 POINTS
TCL: Setting parameter alchLambda2 to 0.049999999999999684
Info: NONBONDED TABLE R-SQUARED SPACING: 0.0625
Info: NONBONDED TABLE SIZE: 705 POINTS
TCL: Running for 1500000 steps
ETITLE: TS BOND ANGLE DIHED IMPRP ELECT VDW BOUNDARY MISC KINETIC TOTAL TEMP POTENTIAL TOTALAVG TEMPAVG PRESSURE GPRESSURE VOLUME PRESSAVG GPRESSAVG
ENERGY: 0 0.7619 2.8824 0.4383 0.0000 -10832.8214 1547.6695 0.0000 0.0000 1699.2251 -7581.8442 290.2542 -9281.0693 -7581.8442 290.2542 783.4284 868.2864 29760.9837 783.4284 868.2864
ENERGY: 300000 0.9804 3.0258 0.5781 0.0000 -10645.1644 1446.1997 0.0000 0.0000 1762.8377 -7431.5426 301.1203 -9194.3803 -7525.2727 296.7086 62.2464 140.5374 30407.8788 94.2343 152.7491
ENERGY: 600000 1.0580 6.3689 0.0996 0.0000 -10690.7396 1403.9629 0.0000 0.0000 1775.3741 -7503.8761 303.2617 -9279.2502 -7497.2456 297.9007 -496.8308 -414.3609 30339.3813 6.4193 69.8642
ENERGY: 900000 0.8786 1.3034 0.0161 0.0000 -10656.2376 1410.3178 0.0000 0.0000 1752.7132 -7491.0085 299.3908 -9243.7217 -7494.1479 298.2752 -311.6732 -172.5454 30312.9357 -44.9623 38.1120
ENERGY: 1200000 1.7159 3.5441 0.6414 0.0000 -10615.8211 1392.4068 0.0000 0.0000 1740.3496 -7477.1632 297.2789 -9217.5129 -7491.2457 299.3138 -460.7395 -403.6043 30347.6362 -25.0052 54.3660
ENERGY: 1500000 0.5586 1.1785 0.0511 0.0000 -10735.3699 1499.8439 0.0000 0.0000 1743.3438 -7490.3940 297.7904 -9233.7378 -7486.0532 299.9539 621.5366 664.0261 30169.3110 100.0220 179.8300
TCL: Running FEP window  20: Lambda1 0.049999999999999684 Lambda2 0.0    [dLambda -0.049999999999999684]
TCL: Setting parameter firsttimestep to 0
TCL: Setting parameter alchLambda to 0.049999999999999684
Info: NONBONDED TABLE R-SQUARED SPACING: 0.0625
Info: NONBONDED TABLE SIZE: 705 POINTS
TCL: Setting parameter alchLambda2 to 0.0
Info: NONBONDED TABLE R-SQUARED SPACING: 0.0625
Info: NONBONDED TABLE SIZE: 705 POINTS
TCL: Running for 1500000 steps
ETITLE: TS BOND ANGLE DIHED IMPRP ELECT VDW BOUNDARY MISC KINETIC TOTAL TEMP POTENTIAL TOTALAVG TEMPAVG PRESSURE GPRESSURE VOLUME PRESSAVG GPRESSAVG
ENERGY: 0 0.5586 1.1785 0.0511 0.0000 -10735.3695 1500.0969 0.0000 0.0000 1742.4738 -7491.0107 297.6418 -9233.4845 -7491.0107 297.6418 599.7344 667.6227 30169.3110 599.7344 667.6227
ENERGY: 300000 1.4783 4.4875 0.1896 0.0000 -10615.7200 1368.8377 0.0000 0.0000 1795.7413 -7444.9856 306.7407 -9240.7269 -7534.1397 297.5917 -570.0926 -417.2225 30210.5884 98.9180 183.5553
ENERGY: 600000 2.5292 4.4551 0.6326 0.0000 -10742.3359 1503.7183 0.0000 0.0000 1759.0281 -7471.9726 300.4695 -9231.0007 -7511.3773 299.0938 825.7963 798.3019 29746.9547 169.4919 212.1812
ENERGY: 900000 0.0783 2.7516 0.4144 0.0000 -10582.2406 1389.8815 0.0000 0.0000 1832.7651 -7356.3496 313.0650 -9189.1147 -7490.4069 300.8680 -256.5510 -146.6212 30445.3157 21.5734 67.5137
ENERGY: 1200000 0.1164 2.7332 0.2140 0.0000 -10656.8393 1395.4453 0.0000 0.0000 1682.9942 -7575.3362 287.4817 -9258.3304 -7493.4379 299.9910 -430.3939 -432.2912 30301.7061 -19.8296 23.3294
ENERGY: 1500000 0.1723 2.2900 0.8163 0.0000 -10609.2968 1359.7687 0.0000 0.0000 1769.2130 -7477.0367 302.2093 -9246.2497 -7491.4818 299.5645 -528.1515 -448.7835 29987.5176 -97.1189 -53.2731
TCL: Exiting due to exit command.
