Info: SIMULATION PARAMETERS:
Info: TIMESTEP               2
Info: NUMBER OF STEPS        0
Info: STEPS PER CYCLE        10
Info: PERIODIC CELL BASIS 1  30.9923 0 0
Info: PERIODIC CELL BASIS 2  0 31.88 0
Info: PERIODIC CELL BASIS 3  0 0 30.1483
Info: PERIODIC CELL CENTER   0 0 0
Info: WRAPPING WATERS AROUND PERIODIC BOUNDARIES ON OUTPUT.
Info: WRAPPING ALL CLUSTERS AROUND PERIODIC BOUNDARIES ON OUTPUT.
Info: FIRST LDB TIMESTEP     50
Info: LAST LDB TIMESTEP     -1
Info: HOM BACKGROUND SCALING 1
Info: PME BACKGROUND SCALING 1
Info: MIN ATOMS PER PATCH    40
Info: EMPTY PATCH LOAD       40 ATOMS
Info: VELOCITY FILE          mobley_5732611_equil.vel
Info: CENTER OF MASS MOVING INITIALLY? NO
Info: DIELECTRIC             1
Info: EXCLUDE                SCALED ONE-FOUR
Info: 1-4 ELECTROSTATICS SCALED BY 0.833333
Info: MODIFIED 1-4 VDW PARAMETERS WILL BE USED
Info: DCD FILENAME           mobley_5732611_prod.dcd
Info: DCD FREQUENCY          100000
Info: DCD FIRST STEP         100000
Info: DCD FILE WILL CONTAIN UNIT CELL DATA
Info: XST FILENAME           mobley_5732611_prod.xst
Info: XST FREQUENCY          100000
Info: NO VELOCITY DCD OUTPUT
Info: NO FORCE DCD OUTPUT
Info: OUTPUT FILENAME        mobley_5732611_prod
Info: BINARY OUTPUT FILES WILL BE USED
Info: RESTART FILENAME       mobley_5732611_prod.restart
Info: RESTART FREQUENCY      100000
Info: BINARY RESTART FILES WILL BE USED
Info: CUTOFF                 9
Info: PAIRLIST DISTANCE      11
Info: PAIRLIST SHRINK RATE   0.01
Info: PAIRLIST GROW RATE     0.01
Info: PAIRLIST TRIGGER       0.3
Info: PAIRLISTS PER CYCLE    2
Info: PAIRLISTS ENABLED
Info: MARGIN                 2
Info: HYDROGEN GROUP CUTOFF  2.5
Info: PATCH DIMENSION        15.5
Info: ENERGY OUTPUT STEPS    100000
Info: ENERGY EVALUATION STEPS    100000
Info: OUTPUT ENERGY PRECISION 4
Info: CROSSTERM ENERGY INCLUDED IN DIHEDRAL
Info: TIMING OUTPUT STEPS    1000000
Info: PRESSURE OUTPUT STEPS  100000
Info: ALCHEMICAL FEP ON
Info: FEP CURRENT LAMBDA VALUE     1
Info: FEP COMPARISON LAMBDA VALUE  0.95
Info: FEP INTRA-ALCHEMICAL NON-BONDED INTERACTIONS WILL BE RETAINED
Info: FEP INTRA-ALCHEMICAL BONDED INTERACTIONS WILL BE RETAINED
Info: FEP VDW SHIFTING COEFFICIENT 5
Info: FEP ELEC. ACTIVE FOR ANNIHILATED PARTICLES BETWEEN LAMBDA = 0 AND LAMBDA = 0.5
Info: FEP ELEC. ACTIVE FOR EXNIHILATED PARTICLES BETWEEN LAMBDA = 0.5 AND LAMBDA = 1
Info: FEP VDW ACTIVE FOR ANNIHILATED PARTICLES BETWEEN LAMBDA = 0 AND LAMBDA = 1
Info: FEP VDW ACTIVE FOR EXNIHILATED PARTICLES BETWEEN LAMBDA = 0 AND LAMBDA = 1
Info: FEP BOND ACTIVE FOR ANNIHILATED PARTICLES BETWEEN LAMBDA = 1 AND LAMBDA = 1
Info: FEP BOND ACTIVE FOR EXNIHILATED PARTICLES BETWEEN LAMBDA = 0 AND LAMBDA = 0
Info: LANGEVIN DYNAMICS ACTIVE
Info: LANGEVIN TEMPERATURE   300
Info: LANGEVIN USING BBK INTEGRATOR
Info: LANGEVIN DAMPING COEFFICIENT IS 1 INVERSE PS
Info: LANGEVIN DYNAMICS APPLIED TO HYDROGENS
Info: LANGEVIN PISTON PRESSURE CONTROL ACTIVE
Info:        TARGET PRESSURE IS 1.01325 BAR
Info:     OSCILLATION PERIOD IS 50 FS
Info:             DECAY TIME IS 25 FS
Info:     PISTON TEMPERATURE IS 300 K
Info:       PRESSURE CONTROL IS GROUP-BASED
Info:    INITIAL STRAIN RATE IS -0.000119676 -0.000119676 -0.000119676
Info:       CELL FLUCTUATION IS ISOTROPIC
Info: PARTICLE MESH EWALD (PME) ACTIVE
Info: PME TOLERANCE               1e-06
Info: PME EWALD COEFFICIENT       0.348832
Info: PME INTERPOLATION ORDER     4
Info: PME GRID DIMENSIONS         32 32 32
Info: PME MAXIMUM GRID SPACING    1
Info: PME CALCULATION WILL BE PERFORMED ON GPU
Info: FULL ELECTROSTATIC EVALUATION FREQUENCY      2
Info: USING VERLET I (r-RESPA) MTS SCHEME.
Info: C1 SPLITTING OF LONG RANGE ELECTROSTATICS
Info: PLACING ATOMS IN PATCHES BY HYDROGEN GROUPS
Info: RIGID BONDS TO HYDROGEN : ALL
Info:         ERROR TOLERANCE : 1e-08
Info:          MAX ITERATIONS : 100
Info: RIGID WATER USING SETTLE ALGORITHM
Info: RANDOM NUMBER SEED     1742562855
Info: USE HYDROGEN BONDS?    NO
Info: Using AMBER format force field!
Info: AMBER PARM FILE        mobley_5732611.prmtop
Info: COORDINATE PDB         mobley_5732611.pdb
Info: Exclusions will be read from PARM file!
Info: SCNB (VDW SCALING)     2
Info: USING ARITHMETIC MEAN TO COMBINE L-J SIGMA PARAMETERS
Info: BINARY COORDINATES     mobley_5732611_equil.coor
Info: SUMMARY OF PARAMETERS:
Info: 11 BONDS
Info: 14 ANGLES
Info:   14 HARMONIC
Info:   0 COSINE-BASED
Info: 5 DIHEDRAL
Info: 0 IMPROPER
Info: 0 CROSSTERM
Info: 0 VDW
Info: 55 VDW_PAIRS
Info: 0 NBTHOLE_PAIRS
Info: To read alchdata from file: mobley_5732611.pdb
Info: To read alchflag data from column: 5
Info: STRUCTURE SUMMARY:
Info: 2901 ATOMS
Info: 2901 BONDS
Info: 19 ANGLES
Info: 23 DIHEDRALS
Info: 0 IMPROPERS
Info: 0 CROSSTERMS
Info: 2937 EXCLUSIONS
Info: 2895 RIGID BONDS
Info: ALCH: 0 ATOMS TO DISAPPEAR IN FINAL STATE
Info: ALCH: 12 ATOMS TO APPEAR IN FINAL STATE
Info: 5808 DEGREES OF FREEDOM
Info: 969 HYDROGEN GROUPS
Info: 4 ATOMS IN LARGEST HYDROGEN GROUP
Info: 969 MIGRATION GROUPS
Info: 4 ATOMS IN LARGEST MIGRATION GROUP
Info: TOTAL MASS = 17431.5 amu
Info: TOTAL CHARGE = -0.000100072 e
Info: MASS DENSITY = 0.971761 g/cm^3
Info: ATOM DENSITY = 0.0973896 atoms/A^3
Info: ADDED 0 IMPLICIT EXCLUSIONS
Info: NONBONDED TABLE R-SQUARED SPACING: 0.0625
Info: NONBONDED TABLE SIZE: 705 POINTS
Info: REMOVING COM VELOCITY 0.0370773 -0.105753 -0.109749
Info: Use 3D box decompostion in PME FFT.
Info: Updated CUDA force table with 4096 elements.
Info: Updated CUDA LJ table with 10 x 10 elements.
Info: Found 13 unique exclusion lists needing 24 bytes
TCL: Running for 1500000 steps
ETITLE: TS BOND ANGLE DIHED IMPRP ELECT VDW BOUNDARY MISC KINETIC TOTAL TEMP POTENTIAL TOTALAVG TEMPAVG PRESSURE GPRESSURE VOLUME PRESSAVG GPRESSAVG
ENERGY: 0 2.5143 4.6674 2.6852 0.0000 -10690.8476 1496.1972 0.0000 0.0000 1692.5946 -7492.1890 293.3031 -9184.7836 -7492.1890 293.3031 365.4690 453.0173 29787.5703 365.4690 453.0173
ENERGY: 300000 2.6407 5.0238 1.5956 0.0000 -10561.3682 1412.7438 0.0000 0.0000 1765.7464 -7373.6179 305.9793 -9139.3642 -7416.2024 301.1218 -149.9721 -92.4438 30100.5025 224.4567 298.5942
ENERGY: 600000 0.9653 9.0256 3.3934 0.0000 -10545.3154 1382.5970 0.0000 0.0000 1714.9238 -7434.4102 297.1725 -9149.3340 -7423.7861 300.4424 -487.1032 -443.8565 29970.3860 -185.8544 -125.5426
ENERGY: 900000 1.4259 6.5713 1.5566 0.0000 -10679.4386 1485.5058 0.0000 0.0000 1742.7965 -7441.5825 302.0025 -9184.3791 -7412.4318 300.7973 413.1901 468.2321 29981.3313 -66.5445 -8.6466
ENERGY: 1200000 0.2910 6.7201 2.1033 0.0000 -10618.3893 1428.8346 0.0000 0.0000 1721.4490 -7458.9911 298.3032 -9180.4402 -7406.3338 300.8934 -168.4802 -91.7300 30191.3887 -64.2051 -5.6200
ENERGY: 1500000 1.9899 5.9365 1.3535 0.0000 -10549.0335 1407.9841 0.0000 0.0000 1705.1746 -7426.5948 295.4831 -9131.7694 -7402.9990 301.1311 231.4392 269.6710 29513.0307 -36.1510 25.6285
TCL: Running FEP window   2: Lambda1 0.95   Lambda2 0.8999999999999999 [dLambda -0.050000000000000044]
TCL: Setting parameter firsttimestep to 0
TCL: Setting parameter alchLambda to 0.95
Info: NONBONDED TABLE R-SQUARED SPACING: 0.0625
Info: NONBONDED TABLE SIZE: 705 POINTS
TCL: Setting parameter alchLambda2 to 0.8999999999999999
Info: NONBONDED TABLE R-SQUARED SPACING: 0.0625
Info: NONBONDED TABLE SIZE: 705 POINTS
TCL: Running for 1500000 steps
ETITLE: TS BOND ANGLE DIHED IMPRP ELECT VDW BOUNDARY MISC KINETIC TOTAL TEMP POTENTIAL TOTALAVG TEMPAVG PRESSURE GPRESSURE VOLUME PRESSAVG GPRESSAVG
ENERGY: 0 1.9900 5.9365 1.3535 0.0000 -10547.5458 1407.9398 0.0000 0.0000 1704.3412 -7425.9849 295.3387 -9130.3260 -7425.9849 295.3387 188.8075 260.6549 29513.0307 188.8075 260.6549
ENERGY: 300000 3.0054 5.4282 0.7095 0.0000 -10646.0924 1471.1056 0.0000 0.0000 1739.3232 -7426.5205 301.4006 -9165.8437 -7404.3736 302.2139 611.4933 631.6340 29370.2565 432.6474 503.1846
ENERGY: 600000 2.9176 4.9868 0.6134 0.0000 -10546.0217 1397.5941 0.0000 0.0000 1681.3366 -7458.5733 291.3523 -9139.9098 -7400.3327 299.7999 -70.8131 -8.0055 29611.1858 270.1783 340.9284
ENERGY: 900000 1.6616 5.0719 1.8051 0.0000 -10397.3703 1339.7440 0.0000 0.0000 1743.4570 -7305.6307 302.1169 -9049.0877 -7392.2458 300.6921 -124.5616 -29.7215 29589.2097 328.4127 395.1460
ENERGY: 1200000 3.4750 5.5486 3.1084 0.0000 -10721.4571 1526.1428 0.0000 0.0000 1716.8522 -7466.3300 297.5067 -9183.1823 -7396.6077 300.6847 786.5695 820.4612 29705.4024 213.1880 274.3554
ENERGY: 1500000 1.2148 8.7506 0.7397 0.0000 -10500.0759 1426.8765 0.0000 0.0000 1768.3743 -7294.1200 306.4347 -9062.4943 -7385.4437 301.1106 152.3686 205.9282 30332.5199 263.2683 322.7715
TCL: Running FEP window   3: Lambda1 0.8999999999999999 Lambda2 0.8499999999999999 [dLambda -0.050000000000000044]
TCL: Setting parameter firsttimestep to 0
TCL: Setting parameter alchLambda to 0.8999999999999999
Info: NONBONDED TABLE R-SQUARED SPACING: 0.0625
Info: NONBONDED TABLE SIZE: 705 POINTS
TCL: Setting parameter alchLambda2 to 0.8499999999999999
Info: NONBONDED TABLE R-SQUARED SPACING: 0.0625
Info: NONBONDED TABLE SIZE: 705 POINTS
TCL: Running for 1500000 steps
ETITLE: TS BOND ANGLE DIHED IMPRP ELECT VDW BOUNDARY MISC KINETIC TOTAL TEMP POTENTIAL TOTALAVG TEMPAVG PRESSURE GPRESSURE VOLUME PRESSAVG GPRESSAVG
ENERGY: 0 1.2148 8.7506 0.7397 0.0000 -10498.0371 1426.3538 0.0000 0.0000 1767.5187 -7293.4595 306.2865 -9060.9782 -7293.4595 306.2865 114.5896 193.9170 30332.5199 114.5896 193.9170
ENERGY: 300000 1.0635 4.3867 1.8900 0.0000 -10552.2197 1395.9623 0.0000 0.0000 1701.7256 -7447.1916 294.8854 -9148.9172 -7358.3007 300.3085 -193.5572 -67.9526 29555.2723 53.9295 117.4819
ENERGY: 600000 3.8215 6.0256 0.4281 0.0000 -10625.0501 1477.4693 0.0000 0.0000 1815.7776 -7321.5280 314.6491 -9137.3056 -7362.3156 301.6208 461.8397 549.6644 30060.7849 242.7459 299.3570
ENERGY: 900000 2.0383 4.4573 2.2305 0.0000 -10575.0176 1391.3479 0.0000 0.0000 1732.3509 -7442.5926 300.1924 -9174.9435 -7378.5663 300.6531 -507.5598 -400.8440 30001.9073 55.4981 116.3520
ENERGY: 1200000 0.3633 7.8392 0.3223 0.0000 -10528.9297 1370.2075 0.0000 0.0000 1732.6567 -7417.5407 300.2454 -9150.1974 -7383.5553 300.1192 -188.0433 -119.6905 29650.8280 4.4540 65.8785
ENERGY: 1500000 0.7722 5.1098 1.5834 0.0000 -10497.8267 1354.8310 0.0000 0.0000 1727.1745 -7408.3558 299.2954 -9135.5303 -7387.3562 300.5178 -443.7158 -360.6092 29751.3079 -24.5369 40.0689
TCL: Running FEP window   4: Lambda1 0.8499999999999999 Lambda2 0.7999999999999998 [dLambda -0.050000000000000044]
TCL: Setting parameter firsttimestep to 0
TCL: Setting parameter alchLambda to 0.8499999999999999
Info: NONBONDED TABLE R-SQUARED SPACING: 0.0625
Info: NONBONDED TABLE SIZE: 705 POINTS
TCL: Setting parameter alchLambda2 to 0.7999999999999998
Info: NONBONDED TABLE R-SQUARED SPACING: 0.0625
Info: NONBONDED TABLE SIZE: 705 POINTS
TCL: Running for 1500000 steps
ETITLE: TS BOND ANGLE DIHED IMPRP ELECT VDW BOUNDARY MISC KINETIC TOTAL TEMP POTENTIAL TOTALAVG TEMPAVG PRESSURE GPRESSURE VOLUME PRESSAVG GPRESSAVG
ENERGY: 0 0.7722 5.1098 1.5834 0.0000 -10496.3189 1355.1791 0.0000 0.0000 1726.2964 -7407.3781 299.1432 -9133.6745 -7407.3781 299.1432 -449.3906 -362.4595 29751.3079 -449.3906 -362.4595
ENERGY: 300000 1.4230 7.0839 2.5209 0.0000 -10578.4748 1453.6895 0.0000 0.0000 1759.6601 -7354.0974 304.9247 -9113.7575 -7377.0709 302.7491 191.8413 254.7691 29814.6888 -76.8768 -25.1590
ENERGY: 600000 0.8605 6.7473 1.9657 0.0000 -10409.0894 1345.7057 0.0000 0.0000 1809.6490 -7244.1612 313.5871 -9053.8102 -7375.7196 300.4546 -315.6454 -345.1484 30214.1279 -147.8107 -99.5608
ENERGY: 900000 3.6253 6.5162 2.7443 0.0000 -10405.3595 1356.7256 0.0000 0.0000 1705.4497 -7330.2984 295.5308 -9035.7481 -7363.0995 298.9500 -365.8606 -310.7725 30048.1960 -179.8785 -139.0820
ENERGY: 1200000 1.0749 5.5320 2.0982 0.0000 -10587.4433 1503.5915 0.0000 0.0000 1794.6665 -7280.4801 310.9908 -9075.1467 -7366.6367 299.1208 909.2702 985.7250 29601.3008 -94.5217 -54.3017
ENERGY: 1500000 1.3020 4.1706 1.9174 0.0000 -10458.0535 1389.8129 0.0000 0.0000 1760.4798 -7300.3707 305.0667 -9060.8506 -7371.8989 299.8401 80.9728 144.6354 29861.3979 -27.9873 11.2460
TCL: Running FEP window   5: Lambda1 0.7999999999999998 Lambda2 0.7499999999999998 [dLambda -0.050000000000000044]
TCL: Setting parameter firsttimestep to 0
TCL: Setting parameter alchLambda to 0.7999999999999998
Info: NONBONDED TABLE R-SQUARED SPACING: 0.0625
Info: NONBONDED TABLE SIZE: 705 POINTS
TCL: Setting parameter alchLambda2 to 0.7499999999999998
Info: NONBONDED TABLE R-SQUARED SPACING: 0.0625
Info: NONBONDED TABLE SIZE: 705 POINTS
TCL: Running for 1500000 steps
ETITLE: TS BOND ANGLE DIHED IMPRP ELECT VDW BOUNDARY MISC KINETIC TOTAL TEMP POTENTIAL TOTALAVG TEMPAVG PRESSURE GPRESSURE VOLUME PRESSAVG GPRESSAVG
ENERGY: 0 1.3020 4.1706 1.9174 0.0000 -10456.4378 1390.0003 0.0000 0.0000 1759.6200 -7299.4275 304.9177 -9059.0475 -7299.4275 304.9177 60.1614 140.6913 29861.3979 60.1614 140.6913
ENERGY: 300000 0.6471 6.6873 1.4113 0.0000 -10502.8230 1427.1605 0.0000 0.0000 1711.5094 -7355.4074 296.5808 -9066.9168 -7335.8914 303.8276 187.5608 283.8258 29801.2834 444.6131 523.3541
ENERGY: 600000 3.0054 4.3451 0.3437 0.0000 -10510.3758 1433.8657 0.0000 0.0000 1696.1649 -7372.6509 293.9218 -9068.8158 -7342.3798 300.1447 281.3095 342.0357 29665.6495 337.6907 408.8746
ENERGY: 900000 0.6684 8.0191 2.0541 0.0000 -10676.3156 1500.6608 0.0000 0.0000 1764.0343 -7400.8789 305.6827 -9164.9132 -7370.8818 299.6527 780.9421 890.8342 29307.0416 264.2645 339.4225
ENERGY: 1200000 3.2255 4.3144 0.2622 0.0000 -10511.3684 1383.9264 0.0000 0.0000 1707.9593 -7411.6806 295.9656 -9119.6399 -7392.3824 298.1183 -219.2148 -167.9723 30248.6826 146.5947 215.8069
ENERGY: 1500000 1.1261 6.2295 1.3827 0.0000 -10467.2603 1392.3274 0.0000 0.0000 1722.8527 -7343.3420 298.5465 -9066.1946 -7379.0801 298.6303 -13.4366 82.3239 30278.0162 40.9279 111.5315
TCL: Running FEP window   6: Lambda1 0.7499999999999998 Lambda2 0.6999999999999997 [dLambda -0.050000000000000044]
TCL: Setting parameter firsttimestep to 0
TCL: Setting parameter alchLambda to 0.7499999999999998
Info: NONBONDED TABLE R-SQUARED SPACING: 0.0625
Info: NONBONDED TABLE SIZE: 705 POINTS
TCL: Setting parameter alchLambda2 to 0.6999999999999997
Info: NONBONDED TABLE R-SQUARED SPACING: 0.0625
Info: NONBONDED TABLE SIZE: 705 POINTS
TCL: Running for 1500000 steps
ETITLE: TS BOND ANGLE DIHED IMPRP ELECT VDW BOUNDARY MISC KINETIC TOTAL TEMP POTENTIAL TOTALAVG TEMPAVG PRESSURE GPRESSURE VOLUME PRESSAVG GPRESSAVG
ENERGY: 0 1.1261 6.2295 1.3827 0.0000 -10465.0743 1391.3185 0.0000 0.0000 1721.9612 -7343.0564 298.3920 -9065.0176 -7343.0564 298.3920 -11.2459 65.1448 30278.0162 -11.2459 65.1448
ENERGY: 300000 0.9496 3.5100 3.0145 0.0000 -10532.9402 1437.7036 0.0000 0.0000 1757.9655 -7329.7971 304.6310 -9087.7626 -7381.6133 299.5471 365.0749 505.9289 29602.3156 304.1724 393.4485
ENERGY: 600000 2.0246 5.1391 1.0366 0.0000 -10554.4822 1417.4577 0.0000 0.0000 1731.3500 -7397.4741 300.0189 -9128.8242 -7388.3824 298.9333 -18.6892 97.1568 29782.3223 23.4716 113.2367
ENERGY: 900000 2.1200 6.7947 1.0903 0.0000 -10376.5200 1296.0764 0.0000 0.0000 1772.3151 -7298.1235 307.1176 -9070.4386 -7380.0547 299.7204 -1090.7625 -980.3291 30501.8022 -125.8762 -38.1692
ENERGY: 1200000 2.0103 5.7374 1.5030 0.0000 -10647.6844 1453.7894 0.0000 0.0000 1753.5477 -7431.0967 303.8655 -9184.6443 -7386.8597 299.0717 -12.2008 121.9178 29988.1146 -152.7191 -70.6483
ENERGY: 1500000 2.9610 6.0676 2.7251 0.0000 -10581.1315 1421.6010 0.0000 0.0000 1760.0874 -7387.6894 304.9987 -9147.7768 -7382.1685 299.9525 -145.1208 -92.2859 30111.8632 -112.2572 -32.5917
TCL: Running FEP window   7: Lambda1 0.6999999999999997 Lambda2 0.6499999999999997 [dLambda -0.050000000000000044]
TCL: Setting parameter firsttimestep to 0
TCL: Setting parameter alchLambda to 0.6999999999999997
Info: NONBONDED TABLE R-SQUARED SPACING: 0.0625
Info: NONBONDED TABLE SIZE: 705 POINTS
TCL: Setting parameter alchLambda2 to 0.6499999999999997
Info: NONBONDED TABLE R-SQUARED SPACING: 0.0625
Info: NONBONDED TABLE SIZE: 705 POINTS
TCL: Running for 1500000 steps
ETITLE: TS BOND ANGLE DIHED IMPRP ELECT VDW BOUNDARY MISC KINETIC TOTAL TEMP POTENTIAL TOTALAVG TEMPAVG PRESSURE GPRESSURE VOLUME PRESSAVG GPRESSAVG
ENERGY: 0 2.9610 6.0676 2.7251 0.0000 -10580.3588 1421.8092 0.0000 0.0000 1759.2147 -7387.5812 304.8475 -9146.7959 -7387.5812 304.8475 -180.8699 -96.6414 30111.8632 -180.8699 -96.6414
ENERGY: 300000 1.9570 5.6188 4.2528 0.0000 -10363.1732 1322.1682 0.0000 0.0000 1793.4891 -7235.6873 310.7868 -9029.1764 -7337.5435 304.2868 -840.9360 -733.8080 30675.9769 -219.4958 -141.1473
ENERGY: 600000 1.6096 5.2121 0.4474 0.0000 -10574.8997 1397.1461 0.0000 0.0000 1688.4648 -7482.0196 292.5875 -9170.4845 -7365.8104 300.1673 -415.1240 -356.1699 30039.7636 -299.0536 -222.7783
ENERGY: 900000 2.6359 7.8004 3.3025 0.0000 -10487.0457 1372.8564 0.0000 0.0000 1714.3302 -7386.1202 297.0696 -9100.4505 -7386.3458 299.4511 -271.8720 -270.2529 29826.3318 -251.9977 -192.1862
ENERGY: 1200000 1.2685 3.9554 2.4976 0.0000 -10614.3491 1469.1023 0.0000 0.0000 1725.2485 -7412.2768 298.9616 -9137.5253 -7379.7632 299.6733 306.9455 391.4769 29670.4404 -216.5948 -157.6106
ENERGY: 1500000 2.5499 6.8290 1.0988 0.0000 -10566.8050 1439.3489 0.0000 0.0000 1746.7722 -7370.2061 302.6914 -9116.9784 -7375.4145 299.8560 400.5514 453.9051 29882.8815 -187.5802 -130.1509
TCL: Running FEP window   8: Lambda1 0.6499999999999997 Lambda2 0.5999999999999996 [dLambda -0.050000000000000044]
TCL: Setting parameter firsttimestep to 0
TCL: Setting parameter alchLambda to 0.6499999999999997
Info: NONBONDED TABLE R-SQUARED SPACING: 0.0625
Info: NONBONDED TABLE SIZE: 705 POINTS
TCL: Setting parameter alchLambda2 to 0.5999999999999996
Info: NONBONDED TABLE R-SQUARED SPACING: 0.0625
Info: NONBONDED TABLE SIZE: 705 POINTS
TCL: Running for 1500000 steps
ETITLE: TS BOND ANGLE DIHED IMPRP ELECT VDW BOUNDARY MISC KINETIC TOTAL TEMP POTENTIAL TOTALAVG TEMPAVG PRESSURE GPRESSURE VOLUME PRESSAVG GPRESSAVG
ENERGY: 0 2.5499 6.8290 1.0988 0.0000 -10566.3277 1439.4633 0.0000 0.0000 1745.9432 -7370.4435 302.5477 -9116.3867 -7370.4435 302.5477 369.3198 447.4498 29882.8815 369.3198 447.4498
ENERGY: 300000 5.2409 4.4773 1.6486 0.0000 -10530.8713 1363.2480 0.0000 0.0000 1770.2873 -7385.9691 306.7662 -9156.2565 -7393.8229 303.1585 -125.6634 -100.7397 29533.7810 -117.4848 -16.1700
ENERGY: 600000 1.8499 5.1655 4.1697 0.0000 -10515.7249 1377.6266 0.0000 0.0000 1722.5845 -7404.3285 298.5000 -9126.9131 -7394.2427 301.8406 -480.7764 -419.3606 30206.5833 -115.7784 -41.1738
ENERGY: 900000 0.7044 6.0229 0.8484 0.0000 -10669.9937 1513.3507 0.0000 0.0000 1776.4687 -7372.5987 307.8374 -9149.0674 -7389.6278 303.2207 852.3873 973.8256 29498.3621 85.4069 159.1803
ENERGY: 1200000 1.3284 4.5037 3.2607 0.0000 -10580.3468 1471.9488 0.0000 0.0000 1760.3508 -7338.9545 305.0444 -9099.3053 -7380.8547 302.9874 497.9838 532.1368 29603.0445 88.6561 151.6268
ENERGY: 1500000 1.4381 9.1701 1.1758 0.0000 -10392.9505 1308.8477 0.0000 0.0000 1740.8799 -7331.4389 301.6703 -9072.3188 -7374.0786 302.4986 -810.5058 -761.9864 30388.7852 39.9271 102.4829
TCL: Running FEP window   9: Lambda1 0.5999999999999996 Lambda2 0.5499999999999996 [dLambda -0.050000000000000044]
TCL: Setting parameter firsttimestep to 0
TCL: Setting parameter alchLambda to 0.5999999999999996
Info: NONBONDED TABLE R-SQUARED SPACING: 0.0625
Info: NONBONDED TABLE SIZE: 705 POINTS
TCL: Setting parameter alchLambda2 to 0.5499999999999996
Info: NONBONDED TABLE R-SQUARED SPACING: 0.0625
Info: NONBONDED TABLE SIZE: 705 POINTS
TCL: Running for 1500000 steps
ETITLE: TS BOND ANGLE DIHED IMPRP ELECT VDW BOUNDARY MISC KINETIC TOTAL TEMP POTENTIAL TOTALAVG TEMPAVG PRESSURE GPRESSURE VOLUME PRESSAVG GPRESSAVG
ENERGY: 0 1.4381 9.1701 1.1758 0.0000 -10392.1891 1308.8562 0.0000 0.0000 1739.9874 -7331.5614 301.5157 -9071.5489 -7331.5614 301.5157 -841.8820 -767.6028 30388.7852 -841.8820 -767.6028
ENERGY: 300000 2.0753 3.9437 1.3692 0.0000 -10489.1420 1389.0920 0.0000 0.0000 1767.1743 -7325.4875 306.2268 -9092.6618 -7344.2426 302.7323 -66.9637 -35.5843 29663.3714 -676.7258 -620.9928
ENERGY: 600000 2.8479 7.6586 1.5041 0.0000 -10497.4710 1388.6327 0.0000 0.0000 1648.7487 -7448.0792 285.7053 -9096.8279 -7375.7559 298.1294 -267.3953 -212.4601 29795.0650 -410.9388 -345.1110
ENERGY: 900000 0.5070 6.0731 1.8222 0.0000 -10475.0263 1369.3652 0.0000 0.0000 1757.7037 -7339.5551 304.5857 -9097.2588 -7381.7122 298.1409 -488.6957 -440.3606 30175.5618 -330.1447 -278.0817
ENERGY: 1200000 1.9326 9.5873 1.2910 0.0000 -10558.1086 1451.4869 0.0000 0.0000 1665.8389 -7427.9719 288.6668 -9093.8108 -7391.0126 297.6985 335.8618 449.2336 29787.7444 -246.9425 -192.5728
ENERGY: 1500000 2.2636 7.3593 1.1729 0.0000 -10582.6818 1431.4843 0.0000 0.0000 1716.5155 -7423.8862 297.4483 -9140.4017 -7391.0172 298.0141 202.0750 321.7605 29749.1251 -157.6024 -98.7442
TCL: Running FEP window  10: Lambda1 0.5499999999999996 Lambda2 0.4999999999999996 [dLambda -0.04999999999999999]
TCL: Setting parameter firsttimestep to 0
TCL: Setting parameter alchLambda to 0.5499999999999996
Info: NONBONDED TABLE R-SQUARED SPACING: 0.0625
Info: NONBONDED TABLE SIZE: 705 POINTS
TCL: Setting parameter alchLambda2 to 0.4999999999999996
Info: NONBONDED TABLE R-SQUARED SPACING: 0.0625
Info: NONBONDED TABLE SIZE: 705 POINTS
TCL: Running for 1500000 steps
ETITLE: TS BOND ANGLE DIHED IMPRP ELECT VDW BOUNDARY MISC KINETIC TOTAL TEMP POTENTIAL TOTALAVG TEMPAVG PRESSURE GPRESSURE VOLUME PRESSAVG GPRESSAVG
ENERGY: 0 2.2636 7.3593 1.1729 0.0000 -10582.3397 1431.3763 0.0000 0.0000 1715.6516 -7424.5160 297.2986 -9140.1676 -7424.5160 297.2986 234.4925 315.2687 29749.1251 234.4925 315.2687
ENERGY: 300000 2.5696 6.3123 0.9882 0.0000 -10388.5094 1309.7233 0.0000 0.0000 1750.4680 -7318.4481 303.3318 -9068.9161 -7384.8164 298.8644 -943.6682 -835.0465 30001.9480 -285.7091 -216.8581
ENERGY: 600000 1.5309 8.5810 1.5087 0.0000 -10609.8167 1472.0291 0.0000 0.0000 1766.6087 -7359.5582 306.1288 -9126.1670 -7398.8511 299.4672 562.0535 609.3129 29701.8821 -46.8599 12.5972
ENERGY: 900000 0.9839 6.7336 2.4302 0.0000 -10553.0637 1441.6124 0.0000 0.0000 1739.0061 -7362.2974 301.3456 -9101.3036 -7374.7405 301.1381 -62.1043 -50.3364 30284.7335 94.7797 144.0269
ENERGY: 1200000 0.4955 3.7232 1.3501 0.0000 -10621.6040 1457.8421 0.0000 0.0000 1726.6533 -7431.5397 299.2051 -9158.1930 -7374.5115 300.5980 112.0314 185.1652 30176.1731 -22.2223 31.7132
ENERGY: 1500000 0.2268 4.1975 0.9102 0.0000 -10617.1653 1474.1305 0.0000 0.0000 1689.2329 -7448.4673 292.7206 -9137.7002 -7372.0376 300.6514 457.8744 526.4067 29810.9604 22.4491 80.0846
TCL: Running FEP window  11: Lambda1 0.4999999999999996 Lambda2 0.4499999999999996 [dLambda -0.04999999999999999]
TCL: Setting parameter firsttimestep to 0
TCL: Setting parameter alchLambda to 0.4999999999999996
Info: NONBONDED TABLE R-SQUARED SPACING: 0.0625
Info: NONBONDED TABLE SIZE: 705 POINTS
TCL: Setting parameter alchLambda2 to 0.4499999999999996
Info: NONBONDED TABLE R-SQUARED SPACING: 0.0625
Info: NONBONDED TABLE SIZE: 705 POINTS
TCL: Running for 1500000 steps
ETITLE: TS BOND ANGLE DIHED IMPRP ELECT VDW BOUNDARY MISC KINETIC TOTAL TEMP POTENTIAL TOTALAVG TEMPAVG PRESSURE GPRESSURE VOLUME PRESSAVG GPRESSAVG
ENERGY: 0 0.2268 4.1975 0.9102 0.0000 -10617.2719 1474.4125 0.0000 0.0000 1688.3603 -7449.1644 292.5694 -9137.5248 -7449.1644 292.5694 441.3131 522.9633 29810.9604 441.3131 522.9633
ENERGY: 300000 0.4179 5.2075 1.7073 0.0000 -10544.6538 1406.5000 0.0000 0.0000 1774.2143 -7356.6068 307.4467 -9130.8211 -7425.8423 296.0969 -68.1895 32.7636 29936.5194 -219.8626 -136.3051
ENERGY: 600000 0.2010 7.1008 1.6502 0.0000 -10510.8135 1434.3345 0.0000 0.0000 1718.4695 -7349.0574 297.7869 -9067.5269 -7389.9838 297.9177 54.3119 150.1102 30251.1093 -180.7075 -97.4649
ENERGY: 900000 2.7336 8.3647 1.6543 0.0000 -10418.4896 1315.9369 0.0000 0.0000 1710.3832 -7379.4167 296.3857 -9089.7999 -7385.3211 299.1702 -885.3552 -831.4781 30288.2136 -245.2674 -174.2626
ENERGY: 1200000 2.5619 8.0551 2.3481 0.0000 -10633.0180 1490.0211 0.0000 0.0000 1748.5210 -7381.5108 302.9944 -9130.0318 -7383.6214 299.2363 694.6359 803.9701 29418.4537 -67.9453 -0.5369
ENERGY: 1500000 1.3646 5.3146 0.7335 0.0000 -10761.7025 1517.4709 0.0000 0.0000 1737.2262 -7499.5928 301.0372 -9236.8190 -7391.0584 299.4307 547.9919 615.0107 29364.8837 35.6627 104.9489
TCL: Running FEP window  12: Lambda1 0.4499999999999996 Lambda2 0.39999999999999963 [dLambda -0.04999999999999999]
TCL: Setting parameter firsttimestep to 0
TCL: Setting parameter alchLambda to 0.4499999999999996
Info: NONBONDED TABLE R-SQUARED SPACING: 0.0625
Info: NONBONDED TABLE SIZE: 705 POINTS
TCL: Setting parameter alchLambda2 to 0.39999999999999963
Info: NONBONDED TABLE R-SQUARED SPACING: 0.0625
Info: NONBONDED TABLE SIZE: 705 POINTS
TCL: Running for 1500000 steps
ETITLE: TS BOND ANGLE DIHED IMPRP ELECT VDW BOUNDARY MISC KINETIC TOTAL TEMP POTENTIAL TOTALAVG TEMPAVG PRESSURE GPRESSURE VOLUME PRESSAVG GPRESSAVG
ENERGY: 0 1.3646 5.3146 0.7335 0.0000 -10761.7013 1517.9248 0.0000 0.0000 1736.4047 -7499.9592 300.8948 -9236.3638 -7499.9592 300.8948 521.0975 614.7796 29364.8837 521.0975 614.7796
ENERGY: 300000 2.0393 6.8371 3.7061 0.0000 -10700.6834 1527.5476 0.0000 0.0000 1794.9591 -7365.5941 311.0415 -9160.5532 -7426.4626 302.8464 820.8502 866.2104 29767.5093 492.8819 545.1344
ENERGY: 600000 2.6702 4.9908 2.6276 0.0000 -10491.9049 1405.5984 0.0000 0.0000 1743.4623 -7332.5555 302.1178 -9076.0179 -7395.2738 304.0535 -272.5748 -186.8849 30335.2663 145.7831 191.8287
ENERGY: 900000 3.8996 7.6335 2.5340 0.0000 -10638.5680 1454.6897 0.0000 0.0000 1746.4614 -7423.3498 302.6375 -9169.8112 -7394.1956 302.3506 202.7783 249.5406 29841.3324 58.8975 113.7555
ENERGY: 1200000 1.7134 6.3561 2.0922 0.0000 -10440.8533 1340.6767 0.0000 0.0000 1790.1995 -7299.8155 310.2167 -9090.0150 -7385.0608 302.8182 -500.9144 -459.8981 30006.0416 18.8473 69.9310
ENERGY: 1500000 1.3799 5.0608 2.2260 0.0000 -10697.5328 1553.1378 0.0000 0.0000 1744.6639 -7391.0644 302.3260 -9135.7283 -7387.7208 302.3047 969.3792 1035.1758 29729.0804 58.5423 108.3402
TCL: Running FEP window  13: Lambda1 0.39999999999999963 Lambda2 0.34999999999999964 [dLambda -0.04999999999999999]
TCL: Setting parameter firsttimestep to 0
TCL: Setting parameter alchLambda to 0.39999999999999963
Info: NONBONDED TABLE R-SQUARED SPACING: 0.0625
Info: NONBONDED TABLE SIZE: 705 POINTS
TCL: Setting parameter alchLambda2 to 0.34999999999999964
Info: NONBONDED TABLE R-SQUARED SPACING: 0.0625
Info: NONBONDED TABLE SIZE: 705 POINTS
TCL: Running for 1500000 steps
ETITLE: TS BOND ANGLE DIHED IMPRP ELECT VDW BOUNDARY MISC KINETIC TOTAL TEMP POTENTIAL TOTALAVG TEMPAVG PRESSURE GPRESSURE VOLUME PRESSAVG GPRESSAVG
ENERGY: 0 1.3799 5.0608 2.2260 0.0000 -10697.5336 1552.6910 0.0000 0.0000 1743.8117 -7392.3642 302.1784 -9136.1759 -7392.3642 302.1784 944.2882 1026.2523 29729.0804 944.2882 1026.2523
ENERGY: 300000 0.8379 6.9623 2.5460 0.0000 -10418.6070 1291.7687 0.0000 0.0000 1704.3553 -7412.1367 295.3411 -9116.4920 -7423.0539 293.1238 -1052.9539 -987.5086 29740.5582 241.0500 323.5129
ENERGY: 600000 1.1147 6.8214 0.7591 0.0000 -10390.7011 1323.4226 0.0000 0.0000 1736.6063 -7321.9769 300.9298 -9058.5832 -7387.1764 296.5904 -659.5397 -602.5391 30108.1929 -45.2303 32.4967
ENERGY: 900000 0.9862 8.2290 1.2075 0.0000 -10499.5391 1403.6671 0.0000 0.0000 1748.8453 -7336.6040 303.0506 -9085.4493 -7386.8974 298.7983 48.9104 84.6394 29667.0479 -105.2777 -35.2235
ENERGY: 1200000 0.4083 6.2917 0.9121 0.0000 -10533.9492 1518.4939 0.0000 0.0000 1750.4575 -7257.3857 303.3300 -9007.8432 -7381.7014 299.7807 1004.2248 1098.6781 29942.2377 -77.7049 -5.2023
ENERGY: 1500000 0.4872 4.1866 1.2362 0.0000 -10509.5076 1319.3456 0.0000 0.0000 1705.5810 -7478.6711 295.5535 -9184.2521 -7380.9065 299.5226 -1009.6360 -903.7478 29894.2617 -148.3834 -75.9327
TCL: Running FEP window  14: Lambda1 0.34999999999999964 Lambda2 0.29999999999999966 [dLambda -0.04999999999999999]
TCL: Setting parameter firsttimestep to 0
TCL: Setting parameter alchLambda to 0.34999999999999964
Info: NONBONDED TABLE R-SQUARED SPACING: 0.0625
Info: NONBONDED TABLE SIZE: 705 POINTS
TCL: Setting parameter alchLambda2 to 0.29999999999999966
Info: NONBONDED TABLE R-SQUARED SPACING: 0.0625
Info: NONBONDED TABLE SIZE: 705 POINTS
TCL: Running for 1500000 steps
ETITLE: TS BOND ANGLE DIHED IMPRP ELECT VDW BOUNDARY MISC KINETIC TOTAL TEMP POTENTIAL TOTALAVG TEMPAVG PRESSURE GPRESSURE VOLUME PRESSAVG GPRESSAVG
ENERGY: 0 0.4872 4.1866 1.2362 0.0000 -10509.5087 1319.5184 0.0000 0.0000 1704.7652 -7479.3152 295.4121 -9184.0804 -7479.3152 295.4121 -995.2019 -908.0316 29894.2617 -995.2019 -908.0316
ENERGY: 300000 3.8999 7.4153 2.7371 0.0000 -10509.4145 1404.9932 0.0000 0.0000 1680.9264 -7409.4425 291.2812 -9090.3689 -7382.7105 301.8043 -208.6511 -124.3183 29942.3170 -270.2685 -210.3722
ENERGY: 600000 1.3939 7.2679 1.2293 0.0000 -10690.7139 1512.2818 0.0000 0.0000 1688.9617 -7479.5792 292.6736 -9168.5410 -7391.9680 300.3822 783.0333 866.6270 29420.2551 -135.4668 -73.0222
ENERGY: 900000 3.2541 6.8715 1.5886 0.0000 -10316.1234 1274.3617 0.0000 0.0000 1792.5078 -7237.5397 310.6167 -9030.0474 -7369.4422 301.4601 -973.6645 -872.1672 30004.6282 -290.0250 -224.6389
ENERGY: 1200000 1.4808 4.9453 0.7948 0.0000 -10432.2062 1401.5100 0.0000 0.0000 1751.6398 -7271.8355 303.5349 -9023.4753 -7357.0794 301.5335 -8.3423 48.4297 30004.1981 -291.5209 -223.1919
ENERGY: 1500000 2.1678 4.9256 1.2752 0.0000 -10624.5630 1455.8777 0.0000 0.0000 1729.7995 -7430.5172 299.7502 -9160.3167 -7355.5855 301.4493 180.2165 187.4320 29836.5792 -242.9910 -176.9107
TCL: Running FEP window  15: Lambda1 0.29999999999999966 Lambda2 0.24999999999999967 [dLambda -0.04999999999999999]
TCL: Setting parameter firsttimestep to 0
TCL: Setting parameter alchLambda to 0.29999999999999966
Info: NONBONDED TABLE R-SQUARED SPACING: 0.0625
Info: NONBONDED TABLE SIZE: 705 POINTS
TCL: Setting parameter alchLambda2 to 0.24999999999999967
Info: NONBONDED TABLE R-SQUARED SPACING: 0.0625
Info: NONBONDED TABLE SIZE: 705 POINTS
TCL: Running for 1500000 steps
ETITLE: TS BOND ANGLE DIHED IMPRP ELECT VDW BOUNDARY MISC KINETIC TOTAL TEMP POTENTIAL TOTALAVG TEMPAVG PRESSURE GPRESSURE VOLUME PRESSAVG GPRESSAVG
ENERGY: 0 2.1678 4.9256 1.2752 0.0000 -10624.5619 1455.8292 0.0000 0.0000 1728.9442 -7431.4199 299.6020 -9160.3641 -7431.4199 299.6020 104.4859 183.3424 29836.5792 104.4859 183.3424
ENERGY: 300000 1.5308 7.6724 0.4335 0.0000 -10663.7869 1439.3146 0.0000 0.0000 1718.8650 -7495.9706 297.8554 -9214.8356 -7400.9812 299.9801 -176.0409 -5.4336 29421.0424 41.9343 114.7916
ENERGY: 600000 1.1076 4.8512 0.9666 0.0000 -10447.7090 1369.8390 0.0000 0.0000 1685.9308 -7385.0138 292.1484 -9070.9446 -7386.6534 299.1637 -311.0515 -294.0686 30037.9712 74.3569 126.4979
ENERGY: 900000 0.6011 4.4016 2.5680 0.0000 -10504.0630 1400.7138 0.0000 0.0000 1741.1227 -7354.6558 301.7124 -9095.7786 -7374.6077 300.0971 -70.5849 8.1800 29766.7902 59.3521 110.2377
ENERGY: 1200000 1.2632 7.4543 0.9184 0.0000 -10519.2457 1397.5715 0.0000 0.0000 1775.2076 -7336.8307 307.6188 -9112.0383 -7368.6610 300.9016 -381.8814 -333.2282 30234.4523 -7.1532 46.9031
ENERGY: 1500000 3.2682 9.6188 1.5869 0.0000 -10400.8148 1331.9615 0.0000 0.0000 1777.9085 -7276.4709 308.0869 -9054.3793 -7368.5971 301.3375 -491.6361 -394.9015 29780.0466 -142.2651 -80.0699
TCL: Running FEP window  16: Lambda1 0.24999999999999967 Lambda2 0.19999999999999968 [dLambda -0.04999999999999999]
TCL: Setting parameter firsttimestep to 0
TCL: Setting parameter alchLambda to 0.24999999999999967
Info: NONBONDED TABLE R-SQUARED SPACING: 0.0625
Info: NONBONDED TABLE SIZE: 705 POINTS
TCL: Setting parameter alchLambda2 to 0.19999999999999968
Info: NONBONDED TABLE R-SQUARED SPACING: 0.0625
Info: NONBONDED TABLE SIZE: 705 POINTS
TCL: Running for 1500000 steps
ETITLE: TS BOND ANGLE DIHED IMPRP ELECT VDW BOUNDARY MISC KINETIC TOTAL TEMP POTENTIAL TOTALAVG TEMPAVG PRESSURE GPRESSURE VOLUME PRESSAVG GPRESSAVG
ENERGY: 0 3.2682 9.6188 1.5869 0.0000 -10400.8132 1331.9106 0.0000 0.0000 1777.0169 -7277.4118 307.9324 -9054.4287 -7277.4118 307.9324 -481.2004 -396.9402 29780.0466 -481.2004 -396.9402
ENERGY: 300000 1.8627 7.7919 3.3244 0.0000 -10593.6161 1426.5133 0.0000 0.0000 1734.0569 -7420.0669 300.4880 -9154.1238 -7351.5625 300.7391 -311.0756 -314.0531 30002.2988 -426.0891 -352.6573
ENERGY: 600000 2.4464 8.4749 2.0145 0.0000 -10660.2261 1482.4236 0.0000 0.0000 1769.6633 -7395.2034 306.6581 -9164.8667 -7367.4692 301.7426 427.0666 434.3873 29704.2087 -176.4360 -109.1797
ENERGY: 900000 0.2621 3.5972 2.3174 0.0000 -10605.3518 1424.3836 0.0000 0.0000 1693.1004 -7481.6912 293.3908 -9174.7916 -7382.7091 300.1042 -76.5150 56.5985 29289.5843 -164.3621 -85.0010
ENERGY: 1200000 1.4671 5.7738 1.1146 0.0000 -10582.7463 1472.5170 0.0000 0.0000 1703.4574 -7398.4165 295.1855 -9101.8739 -7378.6846 299.4618 165.3714 278.1112 30036.0971 -48.2583 28.8507
ENERGY: 1500000 1.2790 7.7669 0.7036 0.0000 -10689.2948 1465.6823 0.0000 0.0000 1689.7884 -7524.0746 292.8169 -9213.8630 -7383.9313 299.6502 63.7254 131.0876 29276.9653 47.2834 120.6702
TCL: Running FEP window  17: Lambda1 0.19999999999999968 Lambda2 0.1499999999999997 [dLambda -0.04999999999999999]
TCL: Setting parameter firsttimestep to 0
TCL: Setting parameter alchLambda to 0.19999999999999968
Info: NONBONDED TABLE R-SQUARED SPACING: 0.0625
Info: NONBONDED TABLE SIZE: 705 POINTS
TCL: Setting parameter alchLambda2 to 0.1499999999999997
Info: NONBONDED TABLE R-SQUARED SPACING: 0.0625
Info: NONBONDED TABLE SIZE: 705 POINTS
TCL: Running for 1500000 steps
ETITLE: TS BOND ANGLE DIHED IMPRP ELECT VDW BOUNDARY MISC KINETIC TOTAL TEMP POTENTIAL TOTALAVG TEMPAVG PRESSURE GPRESSURE VOLUME PRESSAVG GPRESSAVG
ENERGY: 0 1.2790 7.7669 0.7036 0.0000 -10689.2960 1465.4859 0.0000 0.0000 1688.9066 -7525.1539 292.6641 -9214.0605 -7525.1539 292.6641 47.3246 125.8185 29276.9653 47.3246 125.8185
ENERGY: 300000 1.3941 5.6544 0.6726 0.0000 -10534.3025 1383.5240 0.0000 0.0000 1747.8675 -7395.1900 302.8812 -9143.0575 -7446.3880 298.8847 -242.3040 -237.7478 29696.5465 218.2523 227.0321
ENERGY: 600000 1.8500 8.8324 2.2409 0.0000 -10569.9790 1471.2596 0.0000 0.0000 1755.7761 -7330.0199 304.2516 -9085.7961 -7422.2284 298.5936 476.5351 458.4308 29873.7656 32.3468 50.0795
ENERGY: 900000 1.6874 5.4525 2.0478 0.0000 -10562.4766 1425.5906 0.0000 0.0000 1731.2206 -7396.4778 299.9965 -9127.6984 -7398.5084 300.1960 172.2188 266.2614 29519.4822 -64.8154 -29.3238
ENERGY: 1200000 1.0907 8.2223 0.5508 0.0000 -10413.6929 1314.3229 0.0000 0.0000 1701.0599 -7388.4462 294.7701 -9089.5061 -7387.5884 299.4681 -666.2551 -625.2301 29751.4888 -90.3886 -48.6660
ENERGY: 1500000 2.4691 5.1744 1.7072 0.0000 -10551.7330 1468.8898 0.0000 0.0000 1736.9033 -7336.5892 300.9812 -9073.4925 -7384.3833 299.2137 266.2049 319.7726 30349.0025 -89.2791 -34.3546
TCL: Running FEP window  18: Lambda1 0.1499999999999997 Lambda2 0.09999999999999969 [dLambda -0.05 ]
TCL: Setting parameter firsttimestep to 0
TCL: Setting parameter alchLambda to 0.1499999999999997
Info: NONBONDED TABLE R-SQUARED SPACING: 0.0625
Info: NONBONDED TABLE SIZE: 705 POINTS
TCL: Setting parameter alchLambda2 to 0.09999999999999969
Info: NONBONDED TABLE R-SQUARED SPACING: 0.0625
Info: NONBONDED TABLE SIZE: 705 POINTS
TCL: Running for 1500000 steps
ETITLE: TS BOND ANGLE DIHED IMPRP ELECT VDW BOUNDARY MISC KINETIC TOTAL TEMP POTENTIAL TOTALAVG TEMPAVG PRESSURE GPRESSURE VOLUME PRESSAVG GPRESSAVG
ENERGY: 0 2.4691 5.1744 1.7072 0.0000 -10551.7333 1468.7352 0.0000 0.0000 1736.0261 -7337.6213 300.8292 -9073.6473 -7337.6213 300.8292 231.9569 317.0878 30349.0025 231.9569 317.0878
ENERGY: 300000 1.7389 4.5007 2.3947 0.0000 -10527.4296 1451.9412 0.0000 0.0000 1756.3164 -7310.5377 304.3452 -9066.8540 -7350.0769 303.5599 595.4298 679.1974 29675.5078 179.4970 262.2556
ENERGY: 600000 2.2746 5.0548 1.3583 0.0000 -10490.5782 1403.3194 0.0000 0.0000 1762.0774 -7316.4938 305.3436 -9078.5712 -7366.5125 303.1005 -219.8931 -139.4020 29958.7417 53.8739 133.3209
ENERGY: 900000 1.9230 6.5350 0.7049 0.0000 -10689.0099 1491.3597 0.0000 0.0000 1681.0477 -7507.4395 291.3022 -9188.4873 -7383.1616 301.1008 225.9592 230.8364 29867.3108 28.2472 92.9645
ENERGY: 1200000 0.6841 3.4963 2.6609 0.0000 -10520.7736 1418.6731 0.0000 0.0000 1678.8534 -7416.4059 290.9220 -9095.2592 -7390.3810 298.9982 260.0899 310.2855 29533.3014 19.3425 82.3985
ENERGY: 1500000 1.3096 7.6066 1.1362 0.0000 -10497.4067 1435.6083 0.0000 0.0000 1730.1108 -7321.6351 299.8042 -9051.7459 -7385.8367 299.2920 379.7246 412.0085 29804.6573 -41.0192 13.0010
TCL: Running FEP window  19: Lambda1 0.09999999999999969 Lambda2 0.049999999999999684 [dLambda -0.05 ]
TCL: Setting parameter firsttimestep to 0
TCL: Setting parameter alchLambda to 0.09999999999999969
Info: NONBONDED TABLE R-SQUARED SPACING: 0.0625
Info: NONBONDED TABLE SIZE: 705 POINTS
TCL: Setting parameter alchLambda2 to 0.049999999999999684
Info: NONBONDED TABLE R-SQUARED SPACING: 0.0625
Info: NONBONDED TABLE SIZE: 705 POINTS
TCL: Running for 1500000 steps
ETITLE: TS BOND ANGLE DIHED IMPRP ELECT VDW BOUNDARY MISC KINETIC TOTAL TEMP POTENTIAL TOTALAVG TEMPAVG PRESSURE GPRESSURE VOLUME PRESSAVG GPRESSAVG
ENERGY: 0 1.3096 7.6066 1.1362 0.0000 -10497.4070 1434.6477 0.0000 0.0000 1729.2665 -7323.4403 299.6579 -9052.7068 -7323.4403 299.6579 319.5693 408.3358 29804.6573 319.5693 408.3358
ENERGY: 300000 0.4406 10.5411 2.4506 0.0000 -10395.6084 1341.0278 0.0000 0.0000 1729.7051 -7311.4432 299.7339 -9041.1484 -7361.4545 298.3543 -741.7938 -658.2612 30222.1832 -243.7098 -158.6962
ENERGY: 600000 0.3362 5.4828 4.2579 0.0000 -10454.3947 1338.1276 0.0000 0.0000 1752.5367 -7353.6535 303.6903 -9106.1902 -7377.5643 298.8952 -606.2842 -524.6279 29748.3177 -206.0379 -137.5294
ENERGY: 900000 2.1977 5.6881 3.2723 0.0000 -10472.2816 1419.5327 0.0000 0.0000 1646.8778 -7394.7131 285.3811 -9041.5909 -7380.2559 297.7783 172.9515 224.8091 29532.3797 -136.6385 -78.3453
ENERGY: 1200000 2.6848 8.6945 1.9065 0.0000 -10525.6506 1398.2114 0.0000 0.0000 1696.7257 -7417.4277 294.0190 -9114.1534 -7377.8553 298.6309 -78.3291 -75.1467 29814.5347 -182.4168 -120.3039
ENERGY: 1500000 1.2025 4.1461 0.5861 0.0000 -10547.1848 1457.2942 0.0000 0.0000 1719.3814 -7364.5746 297.9449 -9083.9559 -7378.3859 299.1013 222.6155 318.2194 30041.3699 -229.8998 -163.7816
TCL: Running FEP window  20: Lambda1 0.049999999999999684 Lambda2 0.0    [dLambda -0.049999999999999684]
TCL: Setting parameter firsttimestep to 0
TCL: Setting parameter alchLambda to 0.049999999999999684
Info: NONBONDED TABLE R-SQUARED SPACING: 0.0625
Info: NONBONDED TABLE SIZE: 705 POINTS
TCL: Setting parameter alchLambda2 to 0.0
Info: NONBONDED TABLE R-SQUARED SPACING: 0.0625
Info: NONBONDED TABLE SIZE: 705 POINTS
TCL: Running for 1500000 steps
ETITLE: TS BOND ANGLE DIHED IMPRP ELECT VDW BOUNDARY MISC KINETIC TOTAL TEMP POTENTIAL TOTALAVG TEMPAVG PRESSURE GPRESSURE VOLUME PRESSAVG GPRESSAVG
ENERGY: 0 1.2025 4.1461 0.5861 0.0000 -10547.1832 1457.5676 0.0000 0.0000 1718.5094 -7365.1714 297.7938 -9083.6809 -7365.1714 297.7938 239.3307 318.8119 30041.3699 239.3307 318.8119
ENERGY: 300000 4.6955 8.0003 1.2692 0.0000 -10617.2761 1475.1316 0.0000 0.0000 1746.1414 -7382.0381 302.5821 -9128.1795 -7384.8700 300.5662 645.7382 669.3787 29664.6685 519.2870 563.3543
ENERGY: 600000 1.6905 6.1438 2.2224 0.0000 -10532.3743 1348.5535 0.0000 0.0000 1736.0569 -7437.7072 300.8346 -9173.7641 -7399.9167 298.8316 -918.8615 -824.6518 29835.3228 118.9673 185.4286
ENERGY: 900000 2.0104 5.3407 2.3779 0.0000 -10561.2517 1411.7026 0.0000 0.0000 1758.8368 -7380.9833 304.7820 -9139.8201 -7399.9325 298.5457 148.3788 179.9355 29530.6028 76.2322 135.6528
ENERGY: 1200000 0.9713 5.4983 1.3885 0.0000 -10642.2629 1489.4971 0.0000 0.0000 1739.1994 -7405.7083 301.3791 -9144.9078 -7390.8653 299.3575 695.2304 755.0452 29221.7950 57.3109 116.5604
ENERGY: 1500000 2.5709 6.4590 3.0819 0.0000 -10611.1086 1454.8454 0.0000 0.0000 1707.3845 -7436.7669 295.8660 -9144.1513 -7391.5236 299.1804 287.8145 383.4623 29355.6986 26.1441 90.9019
TCL: Exiting due to exit command.
