Info: SIMULATION PARAMETERS:
Info: TIMESTEP               2
Info: NUMBER OF STEPS        0
Info: STEPS PER CYCLE        10
Info: PERIODIC CELL BASIS 1  31.0753 0 0
Info: PERIODIC CELL BASIS 2  0 31.4528 0
Info: PERIODIC CELL BASIS 3  0 0 31.73
Info: PERIODIC CELL CENTER   0 0 0
Info: WRAPPING WATERS AROUND PERIODIC BOUNDARIES ON OUTPUT.
Info: WRAPPING ALL CLUSTERS AROUND PERIODIC BOUNDARIES ON OUTPUT.
Info: FIRST LDB TIMESTEP     50
Info: LAST LDB TIMESTEP     -1
Info: HOM BACKGROUND SCALING 1
Info: PME BACKGROUND SCALING 1
Info: MIN ATOMS PER PATCH    40
Info: EMPTY PATCH LOAD       40 ATOMS
Info: VELOCITY FILE          mobley_8578590_equil.vel
Info: CENTER OF MASS MOVING INITIALLY? NO
Info: DIELECTRIC             1
Info: EXCLUDE                SCALED ONE-FOUR
Info: 1-4 ELECTROSTATICS SCALED BY 0.833333
Info: MODIFIED 1-4 VDW PARAMETERS WILL BE USED
Info: DCD FILENAME           mobley_8578590_prod.dcd
Info: DCD FREQUENCY          100000
Info: DCD FIRST STEP         100000
Info: DCD FILE WILL CONTAIN UNIT CELL DATA
Info: XST FILENAME           mobley_8578590_prod.xst
Info: XST FREQUENCY          100000
Info: NO VELOCITY DCD OUTPUT
Info: NO FORCE DCD OUTPUT
Info: OUTPUT FILENAME        mobley_8578590_prod
Info: BINARY OUTPUT FILES WILL BE USED
Info: RESTART FILENAME       mobley_8578590_prod.restart
Info: RESTART FREQUENCY      100000
Info: BINARY RESTART FILES WILL BE USED
Info: CUTOFF                 9
Info: PAIRLIST DISTANCE      11
Info: PAIRLIST SHRINK RATE   0.01
Info: PAIRLIST GROW RATE     0.01
Info: PAIRLIST TRIGGER       0.3
Info: PAIRLISTS PER CYCLE    2
Info: PAIRLISTS ENABLED
Info: MARGIN                 2
Info: HYDROGEN GROUP CUTOFF  2.5
Info: PATCH DIMENSION        15.5
Info: ENERGY OUTPUT STEPS    100000
Info: ENERGY EVALUATION STEPS    100000
Info: OUTPUT ENERGY PRECISION 4
Info: CROSSTERM ENERGY INCLUDED IN DIHEDRAL
Info: TIMING OUTPUT STEPS    1000000
Info: PRESSURE OUTPUT STEPS  100000
Info: ALCHEMICAL FEP ON
Info: FEP CURRENT LAMBDA VALUE     1
Info: FEP COMPARISON LAMBDA VALUE  0.95
Info: FEP INTRA-ALCHEMICAL NON-BONDED INTERACTIONS WILL BE RETAINED
Info: FEP INTRA-ALCHEMICAL BONDED INTERACTIONS WILL BE RETAINED
Info: FEP VDW SHIFTING COEFFICIENT 5
Info: FEP ELEC. ACTIVE FOR ANNIHILATED PARTICLES BETWEEN LAMBDA = 0 AND LAMBDA = 0.5
Info: FEP ELEC. ACTIVE FOR EXNIHILATED PARTICLES BETWEEN LAMBDA = 0.5 AND LAMBDA = 1
Info: FEP VDW ACTIVE FOR ANNIHILATED PARTICLES BETWEEN LAMBDA = 0 AND LAMBDA = 1
Info: FEP VDW ACTIVE FOR EXNIHILATED PARTICLES BETWEEN LAMBDA = 0 AND LAMBDA = 1
Info: FEP BOND ACTIVE FOR ANNIHILATED PARTICLES BETWEEN LAMBDA = 1 AND LAMBDA = 1
Info: FEP BOND ACTIVE FOR EXNIHILATED PARTICLES BETWEEN LAMBDA = 0 AND LAMBDA = 0
Info: LANGEVIN DYNAMICS ACTIVE
Info: LANGEVIN TEMPERATURE   300
Info: LANGEVIN USING BBK INTEGRATOR
Info: LANGEVIN DAMPING COEFFICIENT IS 1 INVERSE PS
Info: LANGEVIN DYNAMICS APPLIED TO HYDROGENS
Info: LANGEVIN PISTON PRESSURE CONTROL ACTIVE
Info:        TARGET PRESSURE IS 1.01325 BAR
Info:     OSCILLATION PERIOD IS 50 FS
Info:             DECAY TIME IS 25 FS
Info:     PISTON TEMPERATURE IS 300 K
Info:       PRESSURE CONTROL IS GROUP-BASED
Info:    INITIAL STRAIN RATE IS 0.000575777 0.000575777 0.000575777
Info:       CELL FLUCTUATION IS ISOTROPIC
Info: PARTICLE MESH EWALD (PME) ACTIVE
Info: PME TOLERANCE               1e-06
Info: PME EWALD COEFFICIENT       0.348832
Info: PME INTERPOLATION ORDER     4
Info: PME GRID DIMENSIONS         32 32 32
Info: PME MAXIMUM GRID SPACING    1
Info: PME CALCULATION WILL BE PERFORMED ON GPU
Info: FULL ELECTROSTATIC EVALUATION FREQUENCY      2
Info: USING VERLET I (r-RESPA) MTS SCHEME.
Info: C1 SPLITTING OF LONG RANGE ELECTROSTATICS
Info: PLACING ATOMS IN PATCHES BY HYDROGEN GROUPS
Info: RIGID BONDS TO HYDROGEN : ALL
Info:         ERROR TOLERANCE : 1e-08
Info:          MAX ITERATIONS : 100
Info: RIGID WATER USING SETTLE ALGORITHM
Info: RANDOM NUMBER SEED     1742537885
Info: USE HYDROGEN BONDS?    NO
Info: Using AMBER format force field!
Info: AMBER PARM FILE        mobley_8578590.prmtop
Info: COORDINATE PDB         mobley_8578590.pdb
Info: Exclusions will be read from PARM file!
Info: SCNB (VDW SCALING)     2
Info: USING ARITHMETIC MEAN TO COMBINE L-J SIGMA PARAMETERS
Info: BINARY COORDINATES     mobley_8578590_equil.coor
Info: SUMMARY OF PARAMETERS:
Info: 5 BONDS
Info: 4 ANGLES
Info:   4 HARMONIC
Info:   0 COSINE-BASED
Info: 2 DIHEDRAL
Info: 0 IMPROPER
Info: 0 CROSSTERM
Info: 0 VDW
Info: 21 VDW_PAIRS
Info: 0 NBTHOLE_PAIRS
Info: To read alchdata from file: mobley_8578590.pdb
Info: To read alchflag data from column: 5
Info: STRUCTURE SUMMARY:
Info: 2959 ATOMS
Info: 2958 BONDS
Info: 15 ANGLES
Info: 15 DIHEDRALS
Info: 0 IMPROPERS
Info: 0 CROSSTERMS
Info: 2985 EXCLUSIONS
Info: 2955 RIGID BONDS
Info: ALCH: 0 ATOMS TO DISAPPEAR IN FINAL STATE
Info: ALCH: 10 ATOMS TO APPEAR IN FINAL STATE
Info: 5922 DEGREES OF FREEDOM
Info: 987 HYDROGEN GROUPS
Info: 4 ATOMS IN LARGEST HYDROGEN GROUP
Info: 987 MIGRATION GROUPS
Info: 4 ATOMS IN LARGEST MIGRATION GROUP
Info: TOTAL MASS = 17787.9 amu
Info: TOTAL CHARGE = 0.00030005 e
Info: MASS DENSITY = 0.952441 g/cm^3
Info: ATOM DENSITY = 0.0954114 atoms/A^3
Info: ADDED 0 IMPLICIT EXCLUSIONS
Info: NONBONDED TABLE R-SQUARED SPACING: 0.0625
Info: NONBONDED TABLE SIZE: 705 POINTS
Info: REDUCING NUMBER OF PATCHES TO IMPROVE LOAD BALANCE
Info: REMOVING COM VELOCITY -0.0145662 -0.0412599 0.0695189
Info: Use 3D box decompostion in PME FFT.
Info: Updated CUDA force table with 4096 elements.
Info: Updated CUDA LJ table with 6 x 6 elements.
Info: Found 13 unique exclusion lists needing 20 bytes
TCL: Running for 1500000 steps
ETITLE: TS BOND ANGLE DIHED IMPRP ELECT VDW BOUNDARY MISC KINETIC TOTAL TEMP POTENTIAL TOTALAVG TEMPAVG PRESSURE GPRESSURE VOLUME PRESSAVG GPRESSAVG
ENERGY: 0 0.2090 2.5326 0.1903 0.0000 -10698.2206 1361.2711 0.0000 0.0000 1798.3452 -7535.6724 305.6293 -9334.0176 -7535.6724 305.6293 -944.6991 -862.5567 31013.0807 -944.6991 -862.5567
ENERGY: 300000 0.5899 5.4787 0.8851 0.0000 -10696.0634 1323.2710 0.0000 0.0000 1713.9200 -7651.9187 291.2813 -9365.8387 -7598.3646 298.2993 -880.3088 -838.5714 30379.5613 -393.6878 -329.8394
ENERGY: 600000 0.7124 3.1897 0.6283 0.0000 -10717.2984 1387.9510 0.0000 0.0000 1756.0122 -7568.8050 298.4348 -9324.8172 -7585.2860 298.5923 -294.7533 -248.9719 30436.0326 -193.1874 -133.0108
ENERGY: 900000 2.8809 7.1393 2.9132 0.0000 -10768.1828 1481.8880 0.0000 0.0000 1796.5230 -7476.8384 305.3197 -9273.3614 -7581.4915 299.2977 342.0340 317.9146 31010.4804 -30.4553 24.3207
ENERGY: 1200000 1.1184 2.6101 2.0369 0.0000 -10708.6898 1394.6971 0.0000 0.0000 1754.4134 -7553.8139 298.1631 -9308.2273 -7567.4605 299.7128 -294.6104 -210.9750 30358.3895 -117.6765 -61.3201
ENERGY: 1500000 1.3983 2.9506 0.2182 0.0000 -10984.8155 1586.0997 0.0000 0.0000 1777.5784 -7616.5702 302.1000 -9394.1486 -7574.2452 299.4464 1071.0474 1172.8414 30019.5664 75.5668 134.1744
TCL: Running FEP window   2: Lambda1 0.95   Lambda2 0.8999999999999999 [dLambda -0.050000000000000044]
TCL: Setting parameter firsttimestep to 0
TCL: Setting parameter alchLambda to 0.95
Info: NONBONDED TABLE R-SQUARED SPACING: 0.0625
Info: NONBONDED TABLE SIZE: 705 POINTS
TCL: Setting parameter alchLambda2 to 0.8999999999999999
Info: NONBONDED TABLE R-SQUARED SPACING: 0.0625
Info: NONBONDED TABLE SIZE: 705 POINTS
TCL: Running for 1500000 steps
ETITLE: TS BOND ANGLE DIHED IMPRP ELECT VDW BOUNDARY MISC KINETIC TOTAL TEMP POTENTIAL TOTALAVG TEMPAVG PRESSURE GPRESSURE VOLUME PRESSAVG GPRESSAVG
ENERGY: 0 1.3983 2.9506 0.2182 0.0000 -10981.7427 1585.0207 0.0000 0.0000 1776.7283 -7615.4265 301.9555 -9392.1547 -7615.4265 301.9555 1074.0236 1156.7813 30019.5664 1074.0236 1156.7813
ENERGY: 300000 2.1105 5.2774 0.5412 0.0000 -10730.6318 1398.5597 0.0000 0.0000 1722.4301 -7601.7129 292.7275 -9324.1430 -7597.7229 300.4140 -340.7226 -243.4879 30450.3562 346.8991 432.6249
ENERGY: 600000 0.3033 2.1994 0.8104 0.0000 -10801.8391 1532.6727 0.0000 0.0000 1734.2142 -7531.6390 294.7303 -9265.8532 -7586.7505 298.3799 859.5143 859.7817 30552.0466 266.4579 343.3979
ENERGY: 900000 0.0683 4.4626 0.2087 0.0000 -10881.4794 1489.1994 0.0000 0.0000 1708.2720 -7679.2685 290.3214 -9387.5405 -7588.2088 297.8449 209.6150 280.6275 30271.9037 349.8945 414.9355
ENERGY: 1200000 0.9593 2.6014 2.1673 0.0000 -10626.2288 1449.2715 0.0000 0.0000 1736.3148 -7434.9145 295.0872 -9171.2293 -7571.8666 298.7623 130.7428 165.5662 31119.6132 395.8399 452.9984
ENERGY: 1500000 0.7017 2.8227 0.4564 0.0000 -10631.4932 1396.5472 0.0000 0.0000 1826.8805 -7404.0848 310.4789 -9230.9653 -7564.6814 299.7844 -231.1903 -175.0372 30801.4779 305.1363 363.1900
TCL: Running FEP window   3: Lambda1 0.8999999999999999 Lambda2 0.8499999999999999 [dLambda -0.050000000000000044]
TCL: Setting parameter firsttimestep to 0
TCL: Setting parameter alchLambda to 0.8999999999999999
Info: NONBONDED TABLE R-SQUARED SPACING: 0.0625
Info: NONBONDED TABLE SIZE: 705 POINTS
TCL: Setting parameter alchLambda2 to 0.8499999999999999
Info: NONBONDED TABLE R-SQUARED SPACING: 0.0625
Info: NONBONDED TABLE SIZE: 705 POINTS
TCL: Running for 1500000 steps
ETITLE: TS BOND ANGLE DIHED IMPRP ELECT VDW BOUNDARY MISC KINETIC TOTAL TEMP POTENTIAL TOTALAVG TEMPAVG PRESSURE GPRESSURE VOLUME PRESSAVG GPRESSAVG
ENERGY: 0 0.7017 2.8227 0.4564 0.0000 -10629.8071 1396.4037 0.0000 0.0000 1825.9976 -7403.4251 310.3289 -9229.4227 -7403.4251 310.3289 -263.4692 -182.6299 30801.4779 -263.4692 -182.6299
ENERGY: 300000 1.0377 3.5309 0.2639 0.0000 -10856.4434 1462.9081 0.0000 0.0000 1724.2498 -7664.4530 293.0368 -9388.7028 -7557.9446 298.6362 14.3622 76.5801 30223.1096 -102.2948 -32.7242
ENERGY: 600000 0.8920 4.3548 1.4809 0.0000 -10845.2593 1457.5251 0.0000 0.0000 1742.4743 -7638.5321 296.1341 -9381.0065 -7577.5238 299.0777 -175.2319 -150.7882 30436.2339 -146.7282 -99.0895
ENERGY: 900000 2.2659 2.7594 0.8852 0.0000 -10637.1352 1366.0700 0.0000 0.0000 1716.5790 -7548.5757 291.7331 -9265.1547 -7554.9061 299.0356 -720.6750 -645.4735 30923.5288 -230.9834 -182.3667
ENERGY: 1200000 0.1583 4.7951 0.6475 0.0000 -10879.2467 1432.1818 0.0000 0.0000 1776.9598 -7664.5043 301.9949 -9441.4641 -7558.0153 299.4901 -637.7847 -582.8429 30688.2186 -209.1199 -152.5965
ENERGY: 1500000 0.7399 6.8201 0.7917 0.0000 -10750.3033 1454.3652 0.0000 0.0000 1815.7028 -7471.8838 308.5793 -9287.5866 -7554.5616 299.5664 116.5745 170.3188 30640.4935 -165.5479 -109.8315
TCL: Running FEP window   4: Lambda1 0.8499999999999999 Lambda2 0.7999999999999998 [dLambda -0.050000000000000044]
TCL: Setting parameter firsttimestep to 0
TCL: Setting parameter alchLambda to 0.8499999999999999
Info: NONBONDED TABLE R-SQUARED SPACING: 0.0625
Info: NONBONDED TABLE SIZE: 705 POINTS
TCL: Setting parameter alchLambda2 to 0.7999999999999998
Info: NONBONDED TABLE R-SQUARED SPACING: 0.0625
Info: NONBONDED TABLE SIZE: 705 POINTS
TCL: Running for 1500000 steps
ETITLE: TS BOND ANGLE DIHED IMPRP ELECT VDW BOUNDARY MISC KINETIC TOTAL TEMP POTENTIAL TOTALAVG TEMPAVG PRESSURE GPRESSURE VOLUME PRESSAVG GPRESSAVG
ENERGY: 0 0.7399 6.8201 0.7917 0.0000 -10748.0099 1454.3015 0.0000 0.0000 1814.8262 -7470.5306 308.4303 -9285.3568 -7470.5306 308.4303 97.0888 168.2990 30640.4935 97.0888 168.2990
ENERGY: 300000 1.2976 5.1526 0.8613 0.0000 -10861.4621 1484.7660 0.0000 0.0000 1741.2714 -7628.1132 295.9296 -9369.3846 -7544.4685 302.0235 13.5125 70.5200 30632.5210 -118.0912 -49.6647
ENERGY: 600000 1.7618 2.1951 0.4798 0.0000 -10732.0703 1455.0572 0.0000 0.0000 1713.5295 -7559.0468 291.2149 -9272.5763 -7556.1814 301.2401 -71.8391 -42.1652 31191.3768 -98.9578 -40.4521
ENERGY: 900000 0.2569 2.3411 0.1677 0.0000 -10810.3580 1431.9267 0.0000 0.0000 1736.9995 -7638.6662 295.2036 -9375.6657 -7561.6130 300.4195 -377.6266 -331.5595 30567.8615 -76.2290 -11.4648
ENERGY: 1200000 0.8970 2.7320 0.7026 0.0000 -10684.3163 1435.3567 0.0000 0.0000 1739.0704 -7505.5577 295.5556 -9244.6281 -7560.9552 299.4585 -73.7133 -74.9497 30861.0759 -16.8330 42.8501
ENERGY: 1500000 0.3301 3.8288 0.3569 0.0000 -10825.9343 1462.6036 0.0000 0.0000 1718.5545 -7640.2604 292.0689 -9358.8148 -7566.0345 298.9410 105.2442 170.5829 30281.8359 9.8839 73.9766
TCL: Running FEP window   5: Lambda1 0.7999999999999998 Lambda2 0.7499999999999998 [dLambda -0.050000000000000044]
TCL: Setting parameter firsttimestep to 0
TCL: Setting parameter alchLambda to 0.7999999999999998
Info: NONBONDED TABLE R-SQUARED SPACING: 0.0625
Info: NONBONDED TABLE SIZE: 705 POINTS
TCL: Setting parameter alchLambda2 to 0.7499999999999998
Info: NONBONDED TABLE R-SQUARED SPACING: 0.0625
Info: NONBONDED TABLE SIZE: 705 POINTS
TCL: Running for 1500000 steps
ETITLE: TS BOND ANGLE DIHED IMPRP ELECT VDW BOUNDARY MISC KINETIC TOTAL TEMP POTENTIAL TOTALAVG TEMPAVG PRESSURE GPRESSURE VOLUME PRESSAVG GPRESSAVG
ENERGY: 0 0.3301 3.8288 0.3569 0.0000 -10823.8996 1462.4238 0.0000 0.0000 1717.6786 -7639.2813 291.9200 -9356.9599 -7639.2813 291.9200 85.0911 164.4583 30281.8359 85.0911 164.4583
ENERGY: 300000 1.9533 2.8469 0.5430 0.0000 -10920.6609 1509.4628 0.0000 0.0000 1764.7682 -7641.0867 299.9229 -9405.8549 -7600.6963 298.6361 292.6790 236.8707 30571.9147 -1.5714 36.0696
ENERGY: 600000 0.1890 3.6602 2.1009 0.0000 -10803.2568 1431.9786 0.0000 0.0000 1780.7983 -7584.5299 302.6472 -9365.3281 -7590.1109 298.8679 -264.6536 -214.2590 30525.5352 12.5396 53.6688
ENERGY: 900000 0.3770 5.2230 0.2463 0.0000 -10734.6525 1411.7489 0.0000 0.0000 1780.9488 -7536.1085 302.6728 -9317.0573 -7580.3221 298.7952 -185.2018 -112.4720 30163.1057 37.1918 92.6905
ENERGY: 1200000 1.9118 2.8196 1.2742 0.0000 -10708.7058 1440.1502 0.0000 0.0000 1821.6216 -7440.9284 309.5852 -9262.5500 -7564.6760 298.9395 163.3953 275.1534 30613.2313 -3.3663 60.1256
ENERGY: 1500000 0.6612 4.7736 1.0635 0.0000 -10723.7668 1458.2134 0.0000 0.0000 1711.8141 -7547.2410 290.9233 -9259.0551 -7553.0272 299.1548 486.3520 489.0959 30361.7247 19.8895 77.3154
TCL: Running FEP window   6: Lambda1 0.7499999999999998 Lambda2 0.6999999999999997 [dLambda -0.050000000000000044]
TCL: Setting parameter firsttimestep to 0
TCL: Setting parameter alchLambda to 0.7499999999999998
Info: NONBONDED TABLE R-SQUARED SPACING: 0.0625
Info: NONBONDED TABLE SIZE: 705 POINTS
TCL: Setting parameter alchLambda2 to 0.6999999999999997
Info: NONBONDED TABLE R-SQUARED SPACING: 0.0625
Info: NONBONDED TABLE SIZE: 705 POINTS
TCL: Running for 1500000 steps
ETITLE: TS BOND ANGLE DIHED IMPRP ELECT VDW BOUNDARY MISC KINETIC TOTAL TEMP POTENTIAL TOTALAVG TEMPAVG PRESSURE GPRESSURE VOLUME PRESSAVG GPRESSAVG
ENERGY: 0 0.6612 4.7736 1.0635 0.0000 -10721.6605 1458.2433 0.0000 0.0000 1710.9352 -7545.9837 290.7740 -9256.9189 -7545.9837 290.7740 408.6122 483.5600 30361.7247 408.6122 483.5600
ENERGY: 300000 0.5839 5.7411 0.7492 0.0000 -10616.8974 1420.0677 0.0000 0.0000 1732.5264 -7457.2290 294.4434 -9189.7554 -7510.3940 297.1997 -89.3123 49.6454 31064.5788 540.9359 626.1640
ENERGY: 600000 1.2365 4.8595 0.2737 0.0000 -10860.2877 1535.8437 0.0000 0.0000 1748.5064 -7569.5680 297.1592 -9318.0744 -7518.7129 298.5485 642.6111 681.9266 30129.5405 570.4697 634.9181
ENERGY: 900000 1.3512 2.6429 0.9965 0.0000 -10770.5012 1454.2380 0.0000 0.0000 1714.2529 -7597.0196 291.3378 -9311.2726 -7539.7914 297.8676 231.9921 248.3522 30249.5322 339.7744 403.4268
ENERGY: 1200000 1.5982 4.6204 1.0108 0.0000 -10521.9824 1277.4191 0.0000 0.0000 1765.2268 -7472.1072 300.0008 -9237.3339 -7534.1528 298.9836 -1061.5797 -1033.2966 30914.4947 131.7836 191.2961
ENERGY: 1500000 2.0175 1.8937 0.1512 0.0000 -10692.4645 1383.5882 0.0000 0.0000 1725.0928 -7579.7212 293.1801 -9304.8140 -7537.5582 298.6294 -171.3982 -129.9022 30134.9993 34.7161 93.4286
TCL: Running FEP window   7: Lambda1 0.6999999999999997 Lambda2 0.6499999999999997 [dLambda -0.050000000000000044]
TCL: Setting parameter firsttimestep to 0
TCL: Setting parameter alchLambda to 0.6999999999999997
Info: NONBONDED TABLE R-SQUARED SPACING: 0.0625
Info: NONBONDED TABLE SIZE: 705 POINTS
TCL: Setting parameter alchLambda2 to 0.6499999999999997
Info: NONBONDED TABLE R-SQUARED SPACING: 0.0625
Info: NONBONDED TABLE SIZE: 705 POINTS
TCL: Running for 1500000 steps
ETITLE: TS BOND ANGLE DIHED IMPRP ELECT VDW BOUNDARY MISC KINETIC TOTAL TEMP POTENTIAL TOTALAVG TEMPAVG PRESSURE GPRESSURE VOLUME PRESSAVG GPRESSAVG
ENERGY: 0 2.0175 1.8937 0.1512 0.0000 -10690.7303 1383.7731 0.0000 0.0000 1724.2096 -7578.6853 293.0300 -9302.8949 -7578.6853 293.0300 -227.6380 -134.4863 30134.9993 -227.6380 -134.4863
ENERGY: 300000 1.9198 5.8356 0.1575 0.0000 -10765.1676 1426.7838 0.0000 0.0000 1703.2187 -7627.2521 289.4626 -9330.4709 -7596.5726 295.6995 -299.6319 -263.4810 30477.2994 -209.4016 -175.0779
ENERGY: 600000 0.0183 4.3567 0.9838 0.0000 -10670.0755 1407.8596 0.0000 0.0000 1737.8176 -7519.0396 295.3426 -9256.8572 -7569.0791 298.0476 33.6947 74.9711 30160.6697 -56.2822 -9.6268
ENERGY: 900000 0.8248 3.9829 0.5428 0.0000 -10641.1870 1381.1494 0.0000 0.0000 1816.3089 -7438.3781 308.6823 -9254.6870 -7551.9384 299.7875 -273.8096 -220.0000 30399.1243 -101.9535 -46.5390
ENERGY: 1200000 3.8300 3.5806 0.8137 0.0000 -10830.7884 1453.3436 0.0000 0.0000 1749.3760 -7619.8445 297.3070 -9369.2206 -7561.0645 300.0035 132.5783 212.4620 29864.3861 -64.2512 -2.3207
ENERGY: 1500000 0.4243 4.3227 0.5320 0.0000 -10730.6575 1424.6112 0.0000 0.0000 1740.5759 -7560.1914 295.8114 -9300.7673 -7560.8962 299.7026 -62.9024 6.5791 30403.0299 -91.9955 -28.0722
TCL: Running FEP window   8: Lambda1 0.6499999999999997 Lambda2 0.5999999999999996 [dLambda -0.050000000000000044]
TCL: Setting parameter firsttimestep to 0
TCL: Setting parameter alchLambda to 0.6499999999999997
Info: NONBONDED TABLE R-SQUARED SPACING: 0.0625
Info: NONBONDED TABLE SIZE: 705 POINTS
TCL: Setting parameter alchLambda2 to 0.5999999999999996
Info: NONBONDED TABLE R-SQUARED SPACING: 0.0625
Info: NONBONDED TABLE SIZE: 705 POINTS
TCL: Running for 1500000 steps
ETITLE: TS BOND ANGLE DIHED IMPRP ELECT VDW BOUNDARY MISC KINETIC TOTAL TEMP POTENTIAL TOTALAVG TEMPAVG PRESSURE GPRESSURE VOLUME PRESSAVG GPRESSAVG
ENERGY: 0 0.4243 4.3227 0.5320 0.0000 -10728.7288 1424.8452 0.0000 0.0000 1739.6815 -7558.9231 295.6594 -9298.6046 -7558.9231 295.6594 -53.2652 9.6012 30403.0299 -53.2652 9.6012
ENERGY: 300000 0.4203 2.9582 0.8445 0.0000 -10683.7833 1390.0321 0.0000 0.0000 1774.4798 -7515.0484 301.5734 -9289.5282 -7545.7399 300.6528 -648.7082 -543.1557 30888.5743 -367.7877 -287.1392
ENERGY: 600000 0.0909 3.8145 0.3413 0.0000 -10644.4807 1296.7588 0.0000 0.0000 1771.8607 -7571.6144 301.1283 -9343.4751 -7550.4121 300.0082 -1371.3612 -1282.7069 30755.5509 -338.7281 -263.5611
ENERGY: 900000 1.3512 3.4439 0.0366 0.0000 -10854.5230 1456.1804 0.0000 0.0000 1806.7673 -7586.7436 307.0607 -9393.5109 -7560.3450 300.1320 305.6251 268.6492 30001.1123 -262.3950 -198.2436
ENERGY: 1200000 3.3327 2.3143 1.2047 0.0000 -10798.3075 1466.0175 0.0000 0.0000 1766.2746 -7559.1637 300.1789 -9325.4383 -7556.0898 300.4722 -46.7621 11.0616 30809.0847 -277.5873 -214.0953
ENERGY: 1500000 0.5798 5.6833 0.3657 0.0000 -10661.4927 1348.4855 0.0000 0.0000 1783.5664 -7522.8121 303.1177 -9306.3784 -7554.3994 300.4617 -597.1826 -499.8424 30310.2199 -260.4261 -194.8615
TCL: Running FEP window   9: Lambda1 0.5999999999999996 Lambda2 0.5499999999999996 [dLambda -0.050000000000000044]
TCL: Setting parameter firsttimestep to 0
TCL: Setting parameter alchLambda to 0.5999999999999996
Info: NONBONDED TABLE R-SQUARED SPACING: 0.0625
Info: NONBONDED TABLE SIZE: 705 POINTS
TCL: Setting parameter alchLambda2 to 0.5499999999999996
Info: NONBONDED TABLE R-SQUARED SPACING: 0.0625
Info: NONBONDED TABLE SIZE: 705 POINTS
TCL: Running for 1500000 steps
ETITLE: TS BOND ANGLE DIHED IMPRP ELECT VDW BOUNDARY MISC KINETIC TOTAL TEMP POTENTIAL TOTALAVG TEMPAVG PRESSURE GPRESSURE VOLUME PRESSAVG GPRESSAVG
ENERGY: 0 0.5798 5.6833 0.3657 0.0000 -10659.6511 1348.7720 0.0000 0.0000 1782.6844 -7521.5660 302.9678 -9304.2503 -7521.5660 302.9678 -574.7903 -496.7806 30310.2199 -574.7903 -496.7806
ENERGY: 300000 2.2556 4.5763 0.2574 0.0000 -10820.3972 1441.9348 0.0000 0.0000 1783.5230 -7587.8502 303.1103 -9371.3731 -7560.5540 300.9207 -165.5487 -143.5218 30671.9336 -99.0772 -42.7448
ENERGY: 600000 1.8673 10.4814 0.1342 0.0000 -10581.6337 1344.8205 0.0000 0.0000 1782.2814 -7442.0489 302.8993 -9224.3303 -7523.2854 302.4686 -589.1926 -523.8061 30443.0190 -144.0620 -89.0166
ENERGY: 900000 0.4840 2.8747 1.0274 0.0000 -10683.7735 1442.0025 0.0000 0.0000 1724.1387 -7513.2461 293.0179 -9237.3849 -7529.3386 300.3881 -71.7111 -12.5205 30993.3358 -36.8506 23.0927
ENERGY: 1200000 0.3162 4.1692 0.8311 0.0000 -10942.0633 1605.3633 0.0000 0.0000 1762.0171 -7569.3664 299.4554 -9331.3835 -7537.1855 300.1211 1242.9611 1317.5001 30156.6261 102.4681 161.3154
ENERGY: 1500000 1.0103 3.1561 0.1759 0.0000 -10786.4914 1445.3712 0.0000 0.0000 1775.5715 -7561.2064 301.7589 -9336.7779 -7533.1199 300.4893 37.4121 116.3342 30218.3456 104.1564 169.1306
TCL: Running FEP window  10: Lambda1 0.5499999999999996 Lambda2 0.4999999999999996 [dLambda -0.04999999999999999]
TCL: Setting parameter firsttimestep to 0
TCL: Setting parameter alchLambda to 0.5499999999999996
Info: NONBONDED TABLE R-SQUARED SPACING: 0.0625
Info: NONBONDED TABLE SIZE: 705 POINTS
TCL: Setting parameter alchLambda2 to 0.4999999999999996
Info: NONBONDED TABLE R-SQUARED SPACING: 0.0625
Info: NONBONDED TABLE SIZE: 705 POINTS
TCL: Running for 1500000 steps
ETITLE: TS BOND ANGLE DIHED IMPRP ELECT VDW BOUNDARY MISC KINETIC TOTAL TEMP POTENTIAL TOTALAVG TEMPAVG PRESSURE GPRESSURE VOLUME PRESSAVG GPRESSAVG
ENERGY: 0 1.0103 3.1561 0.1759 0.0000 -10785.9909 1445.6868 0.0000 0.0000 1774.6506 -7561.3113 301.6024 -9335.9618 -7561.3113 301.6024 35.7227 113.8770 30218.3456 35.7227 113.8770
ENERGY: 300000 1.2373 4.9072 1.1812 0.0000 -10730.8899 1496.3515 0.0000 0.0000 1736.8385 -7490.3742 295.1763 -9227.2127 -7509.5420 298.2269 739.7160 760.1773 30468.4611 114.9670 196.3668
ENERGY: 600000 1.3193 2.9705 1.2828 0.0000 -10667.7036 1367.9831 0.0000 0.0000 1763.0721 -7531.0759 299.6347 -9294.1480 -7533.4538 299.0233 -324.5269 -316.4077 30272.6957 -97.2621 -28.7841
ENERGY: 900000 0.7923 6.1354 0.1927 0.0000 -10709.5090 1427.6187 0.0000 0.0000 1807.9018 -7466.8681 307.2535 -9274.7700 -7529.6943 301.6163 -248.1548 -186.6579 30833.7286 -218.4151 -162.8803
ENERGY: 1200000 0.2664 3.7903 0.1092 0.0000 -10774.1144 1439.0286 0.0000 0.0000 1753.6731 -7577.2467 298.0373 -9330.9198 -7533.5928 301.5306 -138.4045 -120.1360 30579.4222 -151.7131 -95.6228
ENERGY: 1500000 2.2137 7.6872 0.2133 0.0000 -10613.1513 1328.7174 0.0000 0.0000 1778.1161 -7496.2036 302.1914 -9274.3197 -7522.9526 302.3197 -1036.6351 -943.1150 30897.0471 -283.5109 -218.8864
TCL: Running FEP window  11: Lambda1 0.4999999999999996 Lambda2 0.4499999999999996 [dLambda -0.04999999999999999]
TCL: Setting parameter firsttimestep to 0
TCL: Setting parameter alchLambda to 0.4999999999999996
Info: NONBONDED TABLE R-SQUARED SPACING: 0.0625
Info: NONBONDED TABLE SIZE: 705 POINTS
TCL: Setting parameter alchLambda2 to 0.4499999999999996
Info: NONBONDED TABLE R-SQUARED SPACING: 0.0625
Info: NONBONDED TABLE SIZE: 705 POINTS
TCL: Running for 1500000 steps
ETITLE: TS BOND ANGLE DIHED IMPRP ELECT VDW BOUNDARY MISC KINETIC TOTAL TEMP POTENTIAL TOTALAVG TEMPAVG PRESSURE GPRESSURE VOLUME PRESSAVG GPRESSAVG
ENERGY: 0 2.2137 7.6872 0.2133 0.0000 -10613.0815 1328.7021 0.0000 0.0000 1777.2432 -7497.0221 302.0430 -9274.2652 -7497.0221 302.0430 -1038.4847 -947.3724 30897.0471 -1038.4847 -947.3724
ENERGY: 300000 0.8118 3.6866 1.2686 0.0000 -10772.1820 1450.1106 0.0000 0.0000 1823.6995 -7492.6047 309.9383 -9316.3042 -7520.9185 299.3087 109.2040 227.7581 30290.5684 -328.9923 -249.6740
ENERGY: 600000 1.0220 2.6896 0.4255 0.0000 -10675.6766 1395.0158 0.0000 0.0000 1831.4610 -7445.0627 311.2574 -9276.5237 -7507.7987 299.0855 -283.1801 -203.7212 30387.5642 -173.3782 -96.0341
ENERGY: 900000 0.7033 4.7000 0.4174 0.0000 -10771.1617 1458.6127 0.0000 0.0000 1791.2406 -7515.4877 304.4219 -9306.7283 -7525.6333 299.6607 55.3808 140.1345 30677.6407 -169.4520 -94.1262
ENERGY: 1200000 3.3738 2.2473 0.5063 0.0000 -10719.0688 1405.9963 0.0000 0.0000 1779.0054 -7527.9396 302.3425 -9306.9450 -7528.4146 300.8937 -241.3676 -171.2753 30215.2471 -143.0861 -73.8283
ENERGY: 1500000 1.7381 3.1937 0.2090 0.0000 -10794.0362 1448.5349 0.0000 0.0000 1755.0116 -7585.3489 298.2648 -9340.3606 -7526.2215 301.7234 -336.4863 -244.3590 30923.5397 -164.5146 -94.1105
TCL: Running FEP window  12: Lambda1 0.4499999999999996 Lambda2 0.39999999999999963 [dLambda -0.04999999999999999]
TCL: Setting parameter firsttimestep to 0
TCL: Setting parameter alchLambda to 0.4499999999999996
Info: NONBONDED TABLE R-SQUARED SPACING: 0.0625
Info: NONBONDED TABLE SIZE: 705 POINTS
TCL: Setting parameter alchLambda2 to 0.39999999999999963
Info: NONBONDED TABLE R-SQUARED SPACING: 0.0625
Info: NONBONDED TABLE SIZE: 705 POINTS
TCL: Running for 1500000 steps
ETITLE: TS BOND ANGLE DIHED IMPRP ELECT VDW BOUNDARY MISC KINETIC TOTAL TEMP POTENTIAL TOTALAVG TEMPAVG PRESSURE GPRESSURE VOLUME PRESSAVG GPRESSAVG
ENERGY: 0 1.7381 3.1937 0.2090 0.0000 -10794.0365 1448.6972 0.0000 0.0000 1754.1201 -7586.0785 298.1133 -9340.1986 -7586.0785 298.1133 -330.2862 -249.1759 30923.5397 -330.2862 -249.1759
ENERGY: 300000 0.2761 2.5375 1.2417 0.0000 -10749.3593 1439.7477 0.0000 0.0000 1741.5073 -7564.0490 295.9697 -9305.5563 -7560.1403 300.8764 102.0866 176.8931 30039.5235 -184.7094 -98.4856
ENERGY: 600000 2.3553 3.0569 0.5721 0.0000 -10753.4545 1452.0246 0.0000 0.0000 1734.4456 -7560.9998 294.7696 -9295.4455 -7556.7951 298.9965 107.5236 177.6157 30280.6398 2.7639 77.0611
ENERGY: 900000 0.8534 5.1328 0.3145 0.0000 -10809.4433 1452.3742 0.0000 0.0000 1689.5561 -7661.2123 287.1406 -9350.7684 -7557.4811 298.7396 142.4761 154.5945 30226.0384 42.3073 104.5225
ENERGY: 1200000 2.8901 2.4894 1.0888 0.0000 -10831.5772 1443.6286 0.0000 0.0000 1757.2527 -7624.2276 298.6457 -9381.4803 -7551.6319 301.4285 68.5491 164.1189 29601.6607 -6.6408 54.0826
ENERGY: 1500000 0.2155 2.3648 1.3780 0.0000 -10734.1518 1425.9333 0.0000 0.0000 1745.4568 -7558.8036 296.6409 -9304.2603 -7552.6668 300.6480 -206.9458 -71.3109 30692.7346 -73.6442 -2.1669
TCL: Running FEP window  13: Lambda1 0.39999999999999963 Lambda2 0.34999999999999964 [dLambda -0.04999999999999999]
TCL: Setting parameter firsttimestep to 0
TCL: Setting parameter alchLambda to 0.39999999999999963
Info: NONBONDED TABLE R-SQUARED SPACING: 0.0625
Info: NONBONDED TABLE SIZE: 705 POINTS
TCL: Setting parameter alchLambda2 to 0.34999999999999964
Info: NONBONDED TABLE R-SQUARED SPACING: 0.0625
Info: NONBONDED TABLE SIZE: 705 POINTS
TCL: Running for 1500000 steps
ETITLE: TS BOND ANGLE DIHED IMPRP ELECT VDW BOUNDARY MISC KINETIC TOTAL TEMP POTENTIAL TOTALAVG TEMPAVG PRESSURE GPRESSURE VOLUME PRESSAVG GPRESSAVG
ENERGY: 0 0.2155 2.3648 1.3780 0.0000 -10734.1513 1426.1104 0.0000 0.0000 1744.5932 -7559.4896 296.4942 -9304.0828 -7559.4896 296.4942 -157.1117 -73.1821 30692.7346 -157.1117 -73.1821
ENERGY: 300000 0.0822 2.4198 0.4714 0.0000 -10801.0196 1424.8837 0.0000 0.0000 1778.3057 -7594.8568 302.2236 -9373.1625 -7623.6449 296.9851 -421.7750 -343.0045 30497.9125 -24.5087 27.0205
ENERGY: 600000 0.0386 5.0176 0.6453 0.0000 -10818.5796 1459.1757 0.0000 0.0000 1717.3007 -7636.4018 291.8558 -9353.7025 -7612.2460 295.0871 -41.9429 55.7032 30239.0235 74.3841 143.3760
ENERGY: 900000 0.8817 2.1726 1.3547 0.0000 -10814.2411 1475.1015 0.0000 0.0000 1764.7159 -7570.0148 299.9140 -9334.7308 -7590.9630 296.2101 106.8010 240.3423 30289.8107 28.4456 106.2250
ENERGY: 1200000 0.8152 4.0114 0.2849 0.0000 -10619.4172 1432.7755 0.0000 0.0000 1785.9836 -7395.5466 303.5285 -9181.5302 -7576.3729 296.8517 160.4523 185.5003 30625.3706 107.6877 177.0488
ENERGY: 1500000 1.2782 4.5405 0.0694 0.0000 -10664.7968 1415.0769 0.0000 0.0000 1832.5567 -7411.2751 311.4436 -9243.8318 -7565.6538 297.9299 -362.4792 -310.1471 31225.3388 33.4418 91.5817
TCL: Running FEP window  14: Lambda1 0.34999999999999964 Lambda2 0.29999999999999966 [dLambda -0.04999999999999999]
TCL: Setting parameter firsttimestep to 0
TCL: Setting parameter alchLambda to 0.34999999999999964
Info: NONBONDED TABLE R-SQUARED SPACING: 0.0625
Info: NONBONDED TABLE SIZE: 705 POINTS
TCL: Setting parameter alchLambda2 to 0.29999999999999966
Info: NONBONDED TABLE R-SQUARED SPACING: 0.0625
Info: NONBONDED TABLE SIZE: 705 POINTS
TCL: Running for 1500000 steps
ETITLE: TS BOND ANGLE DIHED IMPRP ELECT VDW BOUNDARY MISC KINETIC TOTAL TEMP POTENTIAL TOTALAVG TEMPAVG PRESSURE GPRESSURE VOLUME PRESSAVG GPRESSAVG
ENERGY: 0 1.2782 4.5405 0.0694 0.0000 -10664.7964 1414.7791 0.0000 0.0000 1831.6861 -7412.4432 311.2956 -9244.1292 -7412.4432 311.2956 -397.0569 -313.6322 31225.3388 -397.0569 -313.6322
ENERGY: 300000 1.5929 4.8849 1.2672 0.0000 -10686.8654 1461.9681 0.0000 0.0000 1738.0083 -7479.1440 295.3751 -9217.1523 -7508.4454 302.4224 546.6620 586.4195 30256.2740 165.4574 236.3749
ENERGY: 600000 0.1879 4.3258 0.3630 0.0000 -10758.5156 1447.7744 0.0000 0.0000 1726.9445 -7578.9199 293.4948 -9305.8645 -7520.8606 301.0984 25.5568 74.4622 30413.0267 136.4841 198.6964
ENERGY: 900000 0.8511 4.3261 1.2340 0.0000 -10778.4258 1452.7832 0.0000 0.0000 1826.5256 -7492.7058 310.4186 -9319.2314 -7534.1871 301.5781 -2.9916 90.2877 30356.8897 183.4106 247.4259
ENERGY: 1200000 0.4925 3.7445 0.8643 0.0000 -10806.0092 1478.2700 0.0000 0.0000 1804.2500 -7518.3879 306.6329 -9322.6379 -7536.6926 300.9787 155.9463 215.1837 30449.3344 76.7580 137.6548
ENERGY: 1500000 0.7249 5.5725 0.2804 0.0000 -10702.6789 1429.2045 0.0000 0.0000 1763.0445 -7503.8521 299.6300 -9266.8966 -7529.1822 301.1808 -222.2321 -178.5347 30760.9347 57.4006 124.8651
TCL: Running FEP window  15: Lambda1 0.29999999999999966 Lambda2 0.24999999999999967 [dLambda -0.04999999999999999]
TCL: Setting parameter firsttimestep to 0
TCL: Setting parameter alchLambda to 0.29999999999999966
Info: NONBONDED TABLE R-SQUARED SPACING: 0.0625
Info: NONBONDED TABLE SIZE: 705 POINTS
TCL: Setting parameter alchLambda2 to 0.24999999999999967
Info: NONBONDED TABLE R-SQUARED SPACING: 0.0625
Info: NONBONDED TABLE SIZE: 705 POINTS
TCL: Running for 1500000 steps
ETITLE: TS BOND ANGLE DIHED IMPRP ELECT VDW BOUNDARY MISC KINETIC TOTAL TEMP POTENTIAL TOTALAVG TEMPAVG PRESSURE GPRESSURE VOLUME PRESSAVG GPRESSAVG
ENERGY: 0 0.7249 5.5725 0.2804 0.0000 -10702.6780 1428.2918 0.0000 0.0000 1762.2061 -7505.6023 299.4875 -9267.8084 -7505.6023 299.4875 -270.9883 -189.6329 30760.9347 -270.9883 -189.6329
ENERGY: 300000 0.5768 1.8133 0.6581 0.0000 -10751.6027 1430.6827 0.0000 0.0000 1704.5969 -7613.2748 289.6968 -9317.8718 -7524.3315 297.6895 132.2474 127.5177 29955.1676 -17.9202 35.0185
ENERGY: 600000 1.1758 4.1591 0.1488 0.0000 -10791.8654 1478.6456 0.0000 0.0000 1759.0897 -7548.6464 298.9578 -9307.7361 -7530.6350 299.3960 328.5971 417.7267 30318.4057 26.1759 86.7235
ENERGY: 900000 0.9320 3.9822 2.2606 0.0000 -10620.5470 1361.4032 0.0000 0.0000 1799.3534 -7452.6157 305.8007 -9251.9691 -7536.6801 299.1402 -480.6258 -412.3739 30483.3750 -79.3874 -24.0369
ENERGY: 1200000 0.9902 3.6843 0.1317 0.0000 -10765.6212 1445.1791 0.0000 0.0000 1735.1044 -7580.5314 294.8815 -9315.6357 -7547.5868 298.5678 -220.3746 -101.2806 30659.7797 -205.1306 -137.5720
ENERGY: 1500000 0.6526 5.1236 1.1230 0.0000 -10805.8075 1433.5660 0.0000 0.0000 1814.0751 -7551.2672 308.3026 -9365.3423 -7538.3134 300.3342 -313.0209 -252.3690 30376.8750 -197.5149 -133.1174
TCL: Running FEP window  16: Lambda1 0.24999999999999967 Lambda2 0.19999999999999968 [dLambda -0.04999999999999999]
TCL: Setting parameter firsttimestep to 0
TCL: Setting parameter alchLambda to 0.24999999999999967
Info: NONBONDED TABLE R-SQUARED SPACING: 0.0625
Info: NONBONDED TABLE SIZE: 705 POINTS
TCL: Setting parameter alchLambda2 to 0.19999999999999968
Info: NONBONDED TABLE R-SQUARED SPACING: 0.0625
Info: NONBONDED TABLE SIZE: 705 POINTS
TCL: Running for 1500000 steps
ETITLE: TS BOND ANGLE DIHED IMPRP ELECT VDW BOUNDARY MISC KINETIC TOTAL TEMP POTENTIAL TOTALAVG TEMPAVG PRESSURE GPRESSURE VOLUME PRESSAVG GPRESSAVG
ENERGY: 0 0.6526 5.1236 1.1230 0.0000 -10805.8074 1433.3551 0.0000 0.0000 1813.1802 -7552.3729 308.1505 -9365.5531 -7552.3729 308.1505 -340.3249 -257.5393 30376.8750 -340.3249 -257.5393
ENERGY: 300000 0.3496 3.0907 0.3800 0.0000 -10776.2636 1482.1578 0.0000 0.0000 1780.2800 -7510.0056 302.5592 -9290.2856 -7530.4470 302.6125 196.6239 227.8098 30732.9531 228.4211 287.9708
ENERGY: 600000 1.4267 2.9490 0.2451 0.0000 -10556.9465 1309.0227 0.0000 0.0000 1734.3692 -7508.9339 294.7566 -9243.3031 -7528.1716 301.3295 -1073.8253 -1025.3586 30680.3077 115.6582 180.0204
ENERGY: 900000 0.7524 4.0244 1.0815 0.0000 -10625.6140 1358.7234 0.0000 0.0000 1780.6873 -7480.3450 302.6284 -9261.0323 -7540.0911 300.5652 -384.2107 -366.5990 30299.6045 112.0657 171.3078
ENERGY: 1200000 0.7678 5.0068 1.0594 0.0000 -10725.8009 1403.8797 0.0000 0.0000 1800.5284 -7514.5588 306.0004 -9315.0872 -7531.8013 301.8110 -339.7668 -328.9349 30865.6603 30.0922 79.6544
ENERGY: 1500000 0.3844 2.7969 1.4366 0.0000 -10750.5465 1424.1673 0.0000 0.0000 1776.0100 -7545.7513 301.8335 -9321.7613 -7545.0200 300.5162 -262.9133 -212.8761 30498.3101 -1.0464 49.1912
TCL: Running FEP window  17: Lambda1 0.19999999999999968 Lambda2 0.1499999999999997 [dLambda -0.04999999999999999]
TCL: Setting parameter firsttimestep to 0
TCL: Setting parameter alchLambda to 0.19999999999999968
Info: NONBONDED TABLE R-SQUARED SPACING: 0.0625
Info: NONBONDED TABLE SIZE: 705 POINTS
TCL: Setting parameter alchLambda2 to 0.1499999999999997
Info: NONBONDED TABLE R-SQUARED SPACING: 0.0625
Info: NONBONDED TABLE SIZE: 705 POINTS
TCL: Running for 1500000 steps
ETITLE: TS BOND ANGLE DIHED IMPRP ELECT VDW BOUNDARY MISC KINETIC TOTAL TEMP POTENTIAL TOTALAVG TEMPAVG PRESSURE GPRESSURE VOLUME PRESSAVG GPRESSAVG
ENERGY: 0 0.3844 2.7969 1.4366 0.0000 -10750.5448 1424.4056 0.0000 0.0000 1775.1003 -7546.4210 301.6789 -9321.5213 -7546.4210 301.6789 -290.8006 -216.1472 30498.3101 -290.8006 -216.1472
ENERGY: 300000 0.6424 6.7556 0.2752 0.0000 -10703.7231 1409.2028 0.0000 0.0000 1799.0211 -7487.8259 305.7442 -9286.8470 -7513.7386 302.7007 -472.5676 -451.7392 30838.4971 -372.7064 -309.3783
ENERGY: 600000 1.2432 3.1443 1.3053 0.0000 -10736.0618 1407.5649 0.0000 0.0000 1712.0449 -7610.7593 290.9626 -9322.8041 -7548.5165 300.6785 -586.4230 -486.1648 30765.4978 -407.6028 -328.3394
ENERGY: 900000 0.7201 6.3419 0.3048 0.0000 -10889.0306 1471.2751 0.0000 0.0000 1793.2813 -7617.1074 304.7687 -9410.3887 -7555.8041 300.1982 -99.8259 -39.0917 30022.9160 -310.1945 -242.3012
ENERGY: 1200000 1.2819 3.4646 0.3184 0.0000 -10721.2880 1456.6481 0.0000 0.0000 1810.5379 -7449.0371 307.7015 -9259.5751 -7546.1263 300.4375 -95.5311 -1.7252 31154.4367 -227.6700 -157.9833
ENERGY: 1500000 0.8547 3.8381 0.8693 0.0000 -10707.0036 1459.5598 0.0000 0.0000 1798.7686 -7443.1132 305.7013 -9241.8817 -7534.6232 301.0503 286.0121 302.8026 30460.5532 -188.1265 -124.7093
TCL: Running FEP window  18: Lambda1 0.1499999999999997 Lambda2 0.09999999999999969 [dLambda -0.05 ]
TCL: Setting parameter firsttimestep to 0
TCL: Setting parameter alchLambda to 0.1499999999999997
Info: NONBONDED TABLE R-SQUARED SPACING: 0.0625
Info: NONBONDED TABLE SIZE: 705 POINTS
TCL: Setting parameter alchLambda2 to 0.09999999999999969
Info: NONBONDED TABLE R-SQUARED SPACING: 0.0625
Info: NONBONDED TABLE SIZE: 705 POINTS
TCL: Running for 1500000 steps
ETITLE: TS BOND ANGLE DIHED IMPRP ELECT VDW BOUNDARY MISC KINETIC TOTAL TEMP POTENTIAL TOTALAVG TEMPAVG PRESSURE GPRESSURE VOLUME PRESSAVG GPRESSAVG
ENERGY: 0 0.8547 3.8381 0.8693 0.0000 -10707.0025 1459.9114 0.0000 0.0000 1797.8555 -7443.6735 305.5461 -9241.5289 -7443.6735 305.5461 222.0413 301.4017 30460.5532 222.0413 301.4017
ENERGY: 300000 0.3327 3.0800 1.0804 0.0000 -10834.5425 1446.8532 0.0000 0.0000 1767.8317 -7615.3645 300.4436 -9383.1962 -7511.7219 304.3137 -72.5368 -26.9007 30279.7174 84.9374 157.6396
ENERGY: 600000 0.3193 3.4599 0.2607 0.0000 -10878.1278 1473.1953 0.0000 0.0000 1712.1361 -7688.7566 290.9781 -9400.8927 -7536.8812 301.4298 104.4368 126.8976 30119.6269 51.1255 103.1311
ENERGY: 900000 0.4506 4.5590 0.4226 0.0000 -10880.9111 1523.3045 0.0000 0.0000 1783.1785 -7568.9959 303.0517 -9352.1744 -7527.5350 302.4743 329.5834 408.1019 30526.2493 102.2063 157.9229
ENERGY: 1200000 0.2205 3.0220 0.3100 0.0000 -10772.6029 1426.0857 0.0000 0.0000 1757.8461 -7585.1186 298.7465 -9342.9647 -7532.5564 302.2599 -338.0972 -268.0750 30471.7116 20.2183 80.2850
ENERGY: 1500000 0.3029 2.8208 0.2332 0.0000 -10630.1315 1332.8734 0.0000 0.0000 1798.6687 -7495.2326 305.6843 -9293.9013 -7533.5210 302.0799 -941.6473 -816.7050 30766.4414 -57.7596 9.7409
TCL: Running FEP window  19: Lambda1 0.09999999999999969 Lambda2 0.049999999999999684 [dLambda -0.05 ]
TCL: Setting parameter firsttimestep to 0
TCL: Setting parameter alchLambda to 0.09999999999999969
Info: NONBONDED TABLE R-SQUARED SPACING: 0.0625
Info: NONBONDED TABLE SIZE: 705 POINTS
TCL: Setting parameter alchLambda2 to 0.049999999999999684
Info: NONBONDED TABLE R-SQUARED SPACING: 0.0625
Info: NONBONDED TABLE SIZE: 705 POINTS
TCL: Running for 1500000 steps
ETITLE: TS BOND ANGLE DIHED IMPRP ELECT VDW BOUNDARY MISC KINETIC TOTAL TEMP POTENTIAL TOTALAVG TEMPAVG PRESSURE GPRESSURE VOLUME PRESSAVG GPRESSAVG
ENERGY: 0 0.3029 2.8208 0.2332 0.0000 -10630.1318 1332.6991 0.0000 0.0000 1797.7730 -7496.3029 305.5321 -9294.0759 -7496.3029 305.5321 -912.8528 -820.6198 30766.4414 -912.8528 -820.6198
ENERGY: 300000 2.0601 4.9769 1.2973 0.0000 -10874.1921 1458.2542 0.0000 0.0000 1745.9868 -7661.6169 296.7310 -9407.6036 -7548.2273 303.6345 -128.2821 -47.2846 30451.9754 -360.3148 -307.5474
ENERGY: 600000 0.7135 3.5950 1.1088 0.0000 -10741.4507 1419.2884 0.0000 0.0000 1732.5185 -7584.2266 294.4421 -9316.7451 -7553.5882 299.5812 -209.1425 -166.7517 30181.6423 -332.8047 -279.8016
ENERGY: 900000 1.2961 5.6879 1.2516 0.0000 -10711.7353 1437.1979 0.0000 0.0000 1740.5204 -7525.7814 295.8020 -9266.3018 -7551.9285 298.8879 -123.7299 -89.0151 30919.9666 -260.4251 -215.1519
ENERGY: 1200000 0.0327 1.8596 0.8992 0.0000 -10774.0724 1494.9953 0.0000 0.0000 1786.5244 -7489.7610 303.6204 -9276.2855 -7541.8812 299.4233 294.6798 293.6489 30687.9254 -251.5891 -205.1265
ENERGY: 1500000 3.6486 2.1620 0.3558 0.0000 -10745.9755 1408.6217 0.0000 0.0000 1769.6149 -7561.5724 300.7466 -9331.1873 -7538.2230 299.9748 -490.7760 -429.4255 30677.9027 -213.3656 -158.0135
TCL: Running FEP window  20: Lambda1 0.049999999999999684 Lambda2 0.0    [dLambda -0.049999999999999684]
TCL: Setting parameter firsttimestep to 0
TCL: Setting parameter alchLambda to 0.049999999999999684
Info: NONBONDED TABLE R-SQUARED SPACING: 0.0625
Info: NONBONDED TABLE SIZE: 705 POINTS
TCL: Setting parameter alchLambda2 to 0.0
Info: NONBONDED TABLE R-SQUARED SPACING: 0.0625
Info: NONBONDED TABLE SIZE: 705 POINTS
TCL: Running for 1500000 steps
ETITLE: TS BOND ANGLE DIHED IMPRP ELECT VDW BOUNDARY MISC KINETIC TOTAL TEMP POTENTIAL TOTALAVG TEMPAVG PRESSURE GPRESSURE VOLUME PRESSAVG GPRESSAVG
ENERGY: 0 3.6487 2.1620 0.3558 0.0000 -10745.9761 1408.7293 0.0000 0.0000 1768.7511 -7562.3292 300.5998 -9331.0803 -7562.3292 300.5998 -521.4990 -431.9028 30677.9027 -521.4990 -431.9028
ENERGY: 300000 0.4203 2.1746 0.3670 0.0000 -10723.7099 1473.7908 0.0000 0.0000 1754.9139 -7492.0433 298.2482 -9246.9572 -7512.3251 299.0179 18.4191 88.7701 30769.3282 -109.2593 -29.8538
ENERGY: 600000 1.1069 3.5847 0.2609 0.0000 -10681.0745 1414.8879 0.0000 0.0000 1699.7074 -7561.5267 288.8658 -9261.2341 -7540.3745 296.6305 -83.7481 -23.4083 30248.8667 -125.9440 -43.6499
ENERGY: 900000 0.4816 1.9983 0.2984 0.0000 -10722.6729 1409.0866 0.0000 0.0000 1854.2670 -7456.5411 315.1333 -9310.8080 -7535.2401 299.5658 -155.3299 -107.3580 30178.0421 -104.9228 -23.7441
ENERGY: 1200000 0.2906 7.2162 0.3479 0.0000 -10905.5239 1494.9624 0.0000 0.0000 1707.5039 -7695.2028 290.1908 -9402.7068 -7549.9361 299.0387 268.6637 312.2168 30107.7468 -34.5704 34.8698
ENERGY: 1500000 1.0092 4.9942 1.5330 0.0000 -10739.9873 1482.2150 0.0000 0.0000 1690.9375 -7559.2985 287.3754 -9250.2359 -7550.8474 298.8126 463.2209 526.1834 30049.1287 13.9568 83.3900
TCL: Exiting due to exit command.
