Info: SIMULATION PARAMETERS:
Info: TIMESTEP               2
Info: NUMBER OF STEPS        0
Info: STEPS PER CYCLE        10
Info: PERIODIC CELL BASIS 1  31.9441 0 0
Info: PERIODIC CELL BASIS 2  0 30.1647 0
Info: PERIODIC CELL BASIS 3  0 0 31.8719
Info: PERIODIC CELL CENTER   0 0 0
Info: WRAPPING WATERS AROUND PERIODIC BOUNDARIES ON OUTPUT.
Info: WRAPPING ALL CLUSTERS AROUND PERIODIC BOUNDARIES ON OUTPUT.
Info: FIRST LDB TIMESTEP     50
Info: LAST LDB TIMESTEP     -1
Info: HOM BACKGROUND SCALING 1
Info: PME BACKGROUND SCALING 1
Info: MIN ATOMS PER PATCH    40
Info: EMPTY PATCH LOAD       40 ATOMS
Info: VELOCITY FILE          mobley_7066554_equil.vel
Info: CENTER OF MASS MOVING INITIALLY? NO
Info: DIELECTRIC             1
Info: EXCLUDE                SCALED ONE-FOUR
Info: 1-4 ELECTROSTATICS SCALED BY 0.833333
Info: MODIFIED 1-4 VDW PARAMETERS WILL BE USED
Info: DCD FILENAME           mobley_7066554_prod.dcd
Info: DCD FREQUENCY          100000
Info: DCD FIRST STEP         100000
Info: DCD FILE WILL CONTAIN UNIT CELL DATA
Info: XST FILENAME           mobley_7066554_prod.xst
Info: XST FREQUENCY          100000
Info: NO VELOCITY DCD OUTPUT
Info: NO FORCE DCD OUTPUT
Info: OUTPUT FILENAME        mobley_7066554_prod
Info: BINARY OUTPUT FILES WILL BE USED
Info: RESTART FILENAME       mobley_7066554_prod.restart
Info: RESTART FREQUENCY      100000
Info: BINARY RESTART FILES WILL BE USED
Info: CUTOFF                 9
Info: PAIRLIST DISTANCE      11
Info: PAIRLIST SHRINK RATE   0.01
Info: PAIRLIST GROW RATE     0.01
Info: PAIRLIST TRIGGER       0.3
Info: PAIRLISTS PER CYCLE    2
Info: PAIRLISTS ENABLED
Info: MARGIN                 2
Info: HYDROGEN GROUP CUTOFF  2.5
Info: PATCH DIMENSION        15.5
Info: ENERGY OUTPUT STEPS    100000
Info: ENERGY EVALUATION STEPS    100000
Info: OUTPUT ENERGY PRECISION 4
Info: CROSSTERM ENERGY INCLUDED IN DIHEDRAL
Info: TIMING OUTPUT STEPS    1000000
Info: PRESSURE OUTPUT STEPS  100000
Info: ALCHEMICAL FEP ON
Info: FEP CURRENT LAMBDA VALUE     0
Info: FEP COMPARISON LAMBDA VALUE  0.05
Info: FEP INTRA-ALCHEMICAL NON-BONDED INTERACTIONS WILL BE RETAINED
Info: FEP INTRA-ALCHEMICAL BONDED INTERACTIONS WILL BE RETAINED
Info: FEP VDW SHIFTING COEFFICIENT 5
Info: FEP ELEC. ACTIVE FOR ANNIHILATED PARTICLES BETWEEN LAMBDA = 0 AND LAMBDA = 0.5
Info: FEP ELEC. ACTIVE FOR EXNIHILATED PARTICLES BETWEEN LAMBDA = 0.5 AND LAMBDA = 1
Info: FEP VDW ACTIVE FOR ANNIHILATED PARTICLES BETWEEN LAMBDA = 0 AND LAMBDA = 1
Info: FEP VDW ACTIVE FOR EXNIHILATED PARTICLES BETWEEN LAMBDA = 0 AND LAMBDA = 1
Info: FEP BOND ACTIVE FOR ANNIHILATED PARTICLES BETWEEN LAMBDA = 1 AND LAMBDA = 1
Info: FEP BOND ACTIVE FOR EXNIHILATED PARTICLES BETWEEN LAMBDA = 0 AND LAMBDA = 0
Info: LANGEVIN DYNAMICS ACTIVE
Info: LANGEVIN TEMPERATURE   300
Info: LANGEVIN USING BBK INTEGRATOR
Info: LANGEVIN DAMPING COEFFICIENT IS 1 INVERSE PS
Info: LANGEVIN DYNAMICS APPLIED TO HYDROGENS
Info: LANGEVIN PISTON PRESSURE CONTROL ACTIVE
Info:        TARGET PRESSURE IS 1.01325 BAR
Info:     OSCILLATION PERIOD IS 50 FS
Info:             DECAY TIME IS 25 FS
Info:     PISTON TEMPERATURE IS 300 K
Info:       PRESSURE CONTROL IS GROUP-BASED
Info:    INITIAL STRAIN RATE IS 0.000114465 0.000114465 0.000114465
Info:       CELL FLUCTUATION IS ISOTROPIC
Info: PARTICLE MESH EWALD (PME) ACTIVE
Info: PME TOLERANCE               1e-06
Info: PME EWALD COEFFICIENT       0.348832
Info: PME INTERPOLATION ORDER     4
Info: PME GRID DIMENSIONS         32 32 32
Info: PME MAXIMUM GRID SPACING    1
Info: PME CALCULATION WILL BE PERFORMED ON GPU
Info: FULL ELECTROSTATIC EVALUATION FREQUENCY      2
Info: USING VERLET I (r-RESPA) MTS SCHEME.
Info: C1 SPLITTING OF LONG RANGE ELECTROSTATICS
Info: PLACING ATOMS IN PATCHES BY HYDROGEN GROUPS
Info: RIGID BONDS TO HYDROGEN : ALL
Info:         ERROR TOLERANCE : 1e-08
Info:          MAX ITERATIONS : 100
Info: RIGID WATER USING SETTLE ALGORITHM
Info: RANDOM NUMBER SEED     1742572206
Info: USE HYDROGEN BONDS?    NO
Info: Using AMBER format force field!
Info: AMBER PARM FILE        mobley_7066554.prmtop
Info: COORDINATE PDB         mobley_7066554.pdb
Info: Exclusions will be read from PARM file!
Info: SCNB (VDW SCALING)     2
Info: USING ARITHMETIC MEAN TO COMBINE L-J SIGMA PARAMETERS
Info: BINARY COORDINATES     mobley_7066554_equil.coor
Info: SUMMARY OF PARAMETERS:
Info: 7 BONDS
Info: 5 ANGLES
Info:   5 HARMONIC
Info:   0 COSINE-BASED
Info: 3 DIHEDRAL
Info: 0 IMPROPER
Info: 0 CROSSTERM
Info: 0 VDW
Info: 28 VDW_PAIRS
Info: 0 NBTHOLE_PAIRS
Info: To read alchdata from file: mobley_7066554.pdb
Info: To read alchflag data from column: 5
Info: STRUCTURE SUMMARY:
Info: 2986 ATOMS
Info: 2986 BONDS
Info: 19 ANGLES
Info: 31 DIHEDRALS
Info: 0 IMPROPERS
Info: 0 CROSSTERMS
Info: 3028 EXCLUSIONS
Info: 2978 RIGID BONDS
Info: ALCH: 0 ATOMS TO DISAPPEAR IN FINAL STATE
Info: ALCH: 13 ATOMS TO APPEAR IN FINAL STATE
Info: 5980 DEGREES OF FREEDOM
Info: 999 HYDROGEN GROUPS
Info: 3 ATOMS IN LARGEST HYDROGEN GROUP
Info: 999 MIGRATION GROUPS
Info: 3 ATOMS IN LARGEST MIGRATION GROUP
Info: TOTAL MASS = 17982.4 amu
Info: TOTAL CHARGE = -0.000200016 e
Info: MASS DENSITY = 0.972324 g/cm^3
Info: ATOM DENSITY = 0.0972285 atoms/A^3
Info: ADDED 0 IMPLICIT EXCLUSIONS
Info: NONBONDED TABLE R-SQUARED SPACING: 0.0625
Info: NONBONDED TABLE SIZE: 705 POINTS
Info: REMOVING COM VELOCITY -0.0062005 0.167548 -0.0542264
Info: Use 3D box decompostion in PME FFT.
Info: Updated CUDA force table with 4096 elements.
Info: Updated CUDA LJ table with 7 x 7 elements.
Info: Found 15 unique exclusion lists needing 28 bytes
TCL: Running for 1500000 steps
ETITLE: TS BOND ANGLE DIHED IMPRP ELECT VDW BOUNDARY MISC KINETIC TOTAL TEMP POTENTIAL TOTALAVG TEMPAVG PRESSURE GPRESSURE VOLUME PRESSAVG GPRESSAVG
ENERGY: 0 1.6431 1.1870 4.8281 0.0000 -10976.7794 1590.4675 0.0000 0.0000 1758.3225 -7620.3312 295.9291 -9378.6537 -7620.3312 295.9291 1001.9995 1088.7060 30711.1516 1001.9995 1088.7060
ENERGY: 300000 6.3703 3.1994 3.8187 0.0000 -10871.7678 1435.8470 0.0000 0.0000 1820.7465 -7601.7858 306.4352 -9422.5323 -7565.2924 304.8174 -410.4011 -302.8284 30451.2556 276.3584 352.5329
ENERGY: 600000 4.6977 3.5266 3.3710 0.0000 -10890.8070 1485.0193 0.0000 0.0000 1852.2798 -7541.9126 311.7423 -9394.1924 -7567.4086 305.6720 -121.8353 -62.1751 30825.5404 192.0372 249.8935
ENERGY: 900000 2.4025 4.6732 1.9577 0.0000 -11017.2534 1547.8675 0.0000 0.0000 1815.5191 -7644.8334 305.5554 -9460.3526 -7577.8345 305.3681 669.0817 689.7750 30294.4652 187.3244 237.8792
ENERGY: 1200000 2.9588 1.7907 2.8964 0.0000 -10754.9058 1438.4475 0.0000 0.0000 1816.5419 -7492.2705 305.7276 -9308.8124 -7570.0697 305.3190 -402.9716 -348.3216 31173.2048 212.3577 267.0042
ENERGY: 1500000 3.0585 3.0857 2.4358 0.0000 -10792.2288 1455.4296 0.0000 0.0000 1754.7423 -7573.4770 295.3266 -9328.2193 -7572.8841 303.2257 -50.8568 5.7655 30603.9132 129.8817 185.7344
TCL: Running FEP window   2: Lambda1 0.05   Lambda2 0.1    [dLambda 0.05  ]
TCL: Setting parameter firsttimestep to 0
TCL: Setting parameter alchLambda to 0.05
Info: NONBONDED TABLE R-SQUARED SPACING: 0.0625
Info: NONBONDED TABLE SIZE: 705 POINTS
TCL: Setting parameter alchLambda2 to 0.1
Info: NONBONDED TABLE R-SQUARED SPACING: 0.0625
Info: NONBONDED TABLE SIZE: 705 POINTS
TCL: Running for 1500000 steps
ETITLE: TS BOND ANGLE DIHED IMPRP ELECT VDW BOUNDARY MISC KINETIC TOTAL TEMP POTENTIAL TOTALAVG TEMPAVG PRESSURE GPRESSURE VOLUME PRESSAVG GPRESSAVG
ENERGY: 0 3.0585 3.0857 2.4358 0.0000 -10792.2285 1457.7075 0.0000 0.0000 1753.8454 -7572.0957 295.1756 -9325.9411 -7572.0957 295.1756 -72.2718 13.6760 30603.9132 -72.2718 13.6760
ENERGY: 300000 1.7922 3.4918 2.0401 0.0000 -10837.8132 1446.6771 0.0000 0.0000 1818.6823 -7565.1297 306.0878 -9383.8120 -7583.8467 299.2050 -159.8811 -73.7490 30683.5093 335.0967 391.4113
ENERGY: 600000 2.4990 3.4463 4.1869 0.0000 -10871.4277 1493.3839 0.0000 0.0000 1753.5698 -7614.3419 295.1292 -9367.9116 -7580.6852 298.6915 210.5526 288.6319 30677.2214 218.4964 273.5033
ENERGY: 900000 2.2490 2.3625 4.1916 0.0000 -10874.2567 1431.2744 0.0000 0.0000 1769.8542 -7664.3249 297.8700 -9434.1791 -7592.8774 298.2705 -350.4902 -292.4366 30222.3562 127.3193 185.0737
ENERGY: 1200000 2.8048 4.0522 3.4202 0.0000 -10691.8789 1351.9013 0.0000 0.0000 1760.1703 -7569.5301 296.2401 -9329.7004 -7591.9284 298.1238 -657.7158 -664.6096 30816.7753 40.0583 92.0785
ENERGY: 1500000 2.8217 5.3927 3.3883 0.0000 -10817.2926 1434.4586 0.0000 0.0000 1741.5423 -7629.6890 293.1050 -9371.2313 -7598.8575 298.0292 -290.6493 -261.7167 30848.5228 7.2550 53.0508
TCL: Running FEP window   3: Lambda1 0.1    Lambda2 0.15000000000000002 [dLambda 0.05000000000000002]
TCL: Setting parameter firsttimestep to 0
TCL: Setting parameter alchLambda to 0.1
Info: NONBONDED TABLE R-SQUARED SPACING: 0.0625
Info: NONBONDED TABLE SIZE: 705 POINTS
TCL: Setting parameter alchLambda2 to 0.15000000000000002
Info: NONBONDED TABLE R-SQUARED SPACING: 0.0625
Info: NONBONDED TABLE SIZE: 705 POINTS
TCL: Running for 1500000 steps
ETITLE: TS BOND ANGLE DIHED IMPRP ELECT VDW BOUNDARY MISC KINETIC TOTAL TEMP POTENTIAL TOTALAVG TEMPAVG PRESSURE GPRESSURE VOLUME PRESSAVG GPRESSAVG
ENERGY: 0 2.8217 5.3927 3.3883 0.0000 -10817.2937 1434.3473 0.0000 0.0000 1740.6864 -7630.6573 292.9610 -9371.3437 -7630.6573 292.9610 -334.4898 -258.2839 30848.5228 -334.4898 -258.2839
ENERGY: 300000 2.8933 1.5470 2.8620 0.0000 -10792.3127 1429.7460 0.0000 0.0000 1780.6992 -7574.5651 299.6952 -9355.2643 -7602.5266 297.2077 -124.3907 -58.9349 30548.8328 -134.1642 -48.0297
ENERGY: 600000 1.3775 1.4485 2.0280 0.0000 -10760.7660 1425.9828 0.0000 0.0000 1750.9659 -7578.9633 294.6910 -9329.9292 -7589.3573 298.1492 -32.1282 -51.8800 30455.7443 76.6711 150.2613
ENERGY: 900000 1.6712 3.6173 2.9188 0.0000 -10665.6960 1335.7460 0.0000 0.0000 1756.3682 -7565.3745 295.6002 -9321.7427 -7590.5052 298.2264 -807.4093 -768.5853 30695.9931 -20.7176 49.0495
ENERGY: 1200000 2.7650 2.7750 2.6854 0.0000 -10739.7784 1457.9570 0.0000 0.0000 1792.0813 -7481.5147 301.6108 -9273.5960 -7586.6411 298.5208 -32.3598 65.9562 30969.0752 -80.6771 -22.9645
ENERGY: 1500000 6.2213 1.5641 2.0809 0.0000 -10882.8606 1471.6620 0.0000 0.0000 1797.9169 -7603.4153 302.5930 -9401.3322 -7582.8682 299.7202 268.9963 277.5767 30466.8850 42.0453 98.1735
TCL: Running FEP window   4: Lambda1 0.15000000000000002 Lambda2 0.2    [dLambda 0.04999999999999999]
TCL: Setting parameter firsttimestep to 0
TCL: Setting parameter alchLambda to 0.15000000000000002
Info: NONBONDED TABLE R-SQUARED SPACING: 0.0625
Info: NONBONDED TABLE SIZE: 705 POINTS
TCL: Setting parameter alchLambda2 to 0.2
Info: NONBONDED TABLE R-SQUARED SPACING: 0.0625
Info: NONBONDED TABLE SIZE: 705 POINTS
TCL: Running for 1500000 steps
ETITLE: TS BOND ANGLE DIHED IMPRP ELECT VDW BOUNDARY MISC KINETIC TOTAL TEMP POTENTIAL TOTALAVG TEMPAVG PRESSURE GPRESSURE VOLUME PRESSAVG GPRESSAVG
ENERGY: 0 6.2213 1.5641 2.0809 0.0000 -10882.8608 1471.3609 0.0000 0.0000 1797.0006 -7604.6329 302.4387 -9401.6335 -7604.6329 302.4387 189.8660 278.7112 30466.8850 189.8660 278.7112
ENERGY: 300000 1.3708 5.6035 4.9347 0.0000 -10895.9738 1534.7185 0.0000 0.0000 1744.1019 -7605.2445 293.5358 -9349.3464 -7623.1304 295.0184 470.4526 568.3497 30653.4295 175.8910 272.0220
ENERGY: 600000 2.8377 1.0158 4.5087 0.0000 -10880.0628 1492.6426 0.0000 0.0000 1788.8023 -7590.2557 301.0590 -9379.0581 -7604.1138 295.6512 326.8070 353.4705 30735.0642 13.7506 102.2956
ENERGY: 900000 2.0815 4.7982 3.8619 0.0000 -10850.5134 1400.6923 0.0000 0.0000 1804.9915 -7634.0880 303.7836 -9439.0795 -7614.2010 296.2333 -688.7671 -625.6483 30613.5803 -118.4659 -38.0461
ENERGY: 1200000 4.2788 1.5655 4.9083 0.0000 -10885.5154 1453.1314 0.0000 0.0000 1779.1736 -7642.4580 299.4384 -9421.6315 -7621.8797 295.8275 -339.9366 -260.6553 30639.2371 -170.7727 -89.7096
ENERGY: 1500000 4.3332 1.6318 4.7625 0.0000 -10796.6015 1437.6120 0.0000 0.0000 1784.2792 -7563.9827 300.2977 -9348.2619 -7617.3372 296.6341 -8.9557 49.8999 30720.0759 -94.4670 -21.2784
TCL: Running FEP window   5: Lambda1 0.2    Lambda2 0.25   [dLambda 0.04999999999999999]
TCL: Setting parameter firsttimestep to 0
TCL: Setting parameter alchLambda to 0.2
Info: NONBONDED TABLE R-SQUARED SPACING: 0.0625
Info: NONBONDED TABLE SIZE: 705 POINTS
TCL: Setting parameter alchLambda2 to 0.25
Info: NONBONDED TABLE R-SQUARED SPACING: 0.0625
Info: NONBONDED TABLE SIZE: 705 POINTS
TCL: Running for 1500000 steps
ETITLE: TS BOND ANGLE DIHED IMPRP ELECT VDW BOUNDARY MISC KINETIC TOTAL TEMP POTENTIAL TOTALAVG TEMPAVG PRESSURE GPRESSURE VOLUME PRESSAVG GPRESSAVG
ENERGY: 0 4.3332 1.6318 4.7625 0.0000 -10796.6018 1438.2680 0.0000 0.0000 1783.3961 -7564.2102 300.1491 -9347.6063 -7564.2102 300.1491 -30.1548 54.0108 30720.0759 -30.1548 54.0108
ENERGY: 300000 2.1264 1.4145 1.7719 0.0000 -10787.5824 1446.3978 0.0000 0.0000 1741.4742 -7594.3976 293.0935 -9335.8718 -7593.6748 298.3228 -4.1721 77.5647 30715.7420 374.1282 433.2669
ENERGY: 600000 4.8923 1.1074 2.4661 0.0000 -10867.9262 1459.9882 0.0000 0.0000 1765.3029 -7634.1692 297.1040 -9399.4722 -7594.3983 298.6133 -330.3561 -197.2924 30821.2466 150.5952 221.9639
ENERGY: 900000 1.2232 2.8519 6.2204 0.0000 -10842.2352 1462.5864 0.0000 0.0000 1800.3041 -7569.0491 302.9947 -9369.3533 -7582.7858 299.4018 38.3608 159.1777 30563.5220 -5.9030 74.6034
ENERGY: 1200000 1.3761 3.8568 1.8735 0.0000 -10808.7996 1439.8333 0.0000 0.0000 1760.3023 -7601.5575 296.2623 -9361.8598 -7587.4752 299.4055 123.3474 246.6719 30203.7932 40.3554 118.0577
ENERGY: 1500000 1.5890 4.6289 3.9669 0.0000 -10862.2064 1484.6344 0.0000 0.0000 1708.9035 -7658.4838 287.6118 -9367.3872 -7587.9180 298.7605 302.0934 359.6375 30600.7758 8.0041 82.4058
TCL: Running FEP window   6: Lambda1 0.25   Lambda2 0.3    [dLambda 0.04999999999999999]
TCL: Setting parameter firsttimestep to 0
TCL: Setting parameter alchLambda to 0.25
Info: NONBONDED TABLE R-SQUARED SPACING: 0.0625
Info: NONBONDED TABLE SIZE: 705 POINTS
TCL: Setting parameter alchLambda2 to 0.3
Info: NONBONDED TABLE R-SQUARED SPACING: 0.0625
Info: NONBONDED TABLE SIZE: 705 POINTS
TCL: Running for 1500000 steps
ETITLE: TS BOND ANGLE DIHED IMPRP ELECT VDW BOUNDARY MISC KINETIC TOTAL TEMP POTENTIAL TOTALAVG TEMPAVG PRESSURE GPRESSURE VOLUME PRESSAVG GPRESSAVG
ENERGY: 0 1.5890 4.6289 3.9669 0.0000 -10862.2063 1484.5517 0.0000 0.0000 1708.0248 -7659.4451 287.4639 -9367.4699 -7659.4451 287.4639 269.5985 361.2036 30600.7758 269.5985 361.2036
ENERGY: 300000 2.0234 3.0047 2.5941 0.0000 -10874.4363 1468.9590 0.0000 0.0000 1786.2891 -7611.5661 300.6360 -9397.8552 -7619.3810 294.4162 172.2701 205.7261 30307.5034 407.9453 472.7621
ENERGY: 600000 1.0970 1.6769 5.8289 0.0000 -10870.9217 1509.7855 0.0000 0.0000 1787.3026 -7565.2309 300.8065 -9352.5335 -7578.8187 298.3480 220.1343 315.2386 31039.0326 156.0106 230.9362
ENERGY: 900000 0.9038 1.5246 0.9869 0.0000 -10770.9723 1414.2537 0.0000 0.0000 1797.1695 -7556.1338 302.4672 -9353.3032 -7571.0184 300.4231 -274.3382 -209.3730 30613.3015 1.9914 57.6936
ENERGY: 1200000 1.8249 1.7128 2.0947 0.0000 -10762.7940 1394.0297 0.0000 0.0000 1684.3787 -7678.7532 283.4843 -9363.1319 -7584.2199 298.4639 -429.6780 -305.3611 30214.5459 -135.5949 -71.0026
ENERGY: 1500000 0.5886 1.2854 2.9596 0.0000 -10749.4973 1455.8405 0.0000 0.0000 1748.4136 -7540.4095 294.2615 -9288.8231 -7576.1728 298.3901 217.3371 287.2096 30625.7887 -76.2133 -7.2833
TCL: Running FEP window   7: Lambda1 0.3    Lambda2 0.35   [dLambda 0.04999999999999999]
TCL: Setting parameter firsttimestep to 0
TCL: Setting parameter alchLambda to 0.3
Info: NONBONDED TABLE R-SQUARED SPACING: 0.0625
Info: NONBONDED TABLE SIZE: 705 POINTS
TCL: Setting parameter alchLambda2 to 0.35
Info: NONBONDED TABLE R-SQUARED SPACING: 0.0625
Info: NONBONDED TABLE SIZE: 705 POINTS
TCL: Running for 1500000 steps
ETITLE: TS BOND ANGLE DIHED IMPRP ELECT VDW BOUNDARY MISC KINETIC TOTAL TEMP POTENTIAL TOTALAVG TEMPAVG PRESSURE GPRESSURE VOLUME PRESSAVG GPRESSAVG
ENERGY: 0 0.5886 1.2854 2.9596 0.0000 -10749.4964 1456.6554 0.0000 0.0000 1747.5544 -7540.4529 294.1168 -9288.0073 -7540.4529 294.1168 219.8094 296.3748 30625.7887 219.8094 296.3748
ENERGY: 300000 0.6569 3.7082 3.9430 0.0000 -10821.1089 1413.0096 0.0000 0.0000 1797.0193 -7602.7719 302.4419 -9399.7912 -7570.2624 296.7617 -414.4337 -472.0030 30921.8534 -475.1066 -431.1270
ENERGY: 600000 2.8706 2.4510 1.5872 0.0000 -10903.5132 1537.5033 0.0000 0.0000 1775.6191 -7583.4821 298.8402 -9359.1011 -7573.8429 297.3714 754.6151 770.3291 30620.3155 -130.0687 -79.1686
ENERGY: 900000 4.7125 2.6535 1.3844 0.0000 -10806.9616 1422.1453 0.0000 0.0000 1764.8691 -7611.1970 297.0309 -9376.0660 -7583.5269 298.0520 -386.4291 -348.0166 30480.4891 -13.2257 33.5447
ENERGY: 1200000 1.7300 3.7253 3.2862 0.0000 -10757.1782 1453.3751 0.0000 0.0000 1761.0753 -7533.9864 296.3924 -9295.0616 -7585.3641 298.1373 68.0227 121.8322 30877.3777 -27.2980 28.1594
ENERGY: 1500000 2.1848 4.9872 3.6568 0.0000 -10770.2271 1427.2561 0.0000 0.0000 1820.8759 -7511.2662 306.4570 -9332.1420 -7572.6780 299.0430 -316.4413 -296.5737 31254.3774 -18.5925 40.9808
TCL: Running FEP window   8: Lambda1 0.35   Lambda2 0.39999999999999997 [dLambda 0.04999999999999999]
TCL: Setting parameter firsttimestep to 0
TCL: Setting parameter alchLambda to 0.35
Info: NONBONDED TABLE R-SQUARED SPACING: 0.0625
Info: NONBONDED TABLE SIZE: 705 POINTS
TCL: Setting parameter alchLambda2 to 0.39999999999999997
Info: NONBONDED TABLE R-SQUARED SPACING: 0.0625
Info: NONBONDED TABLE SIZE: 705 POINTS
TCL: Running for 1500000 steps
ETITLE: TS BOND ANGLE DIHED IMPRP ELECT VDW BOUNDARY MISC KINETIC TOTAL TEMP POTENTIAL TOTALAVG TEMPAVG PRESSURE GPRESSURE VOLUME PRESSAVG GPRESSAVG
ENERGY: 0 2.1848 4.9872 3.6568 0.0000 -10770.2267 1427.0038 0.0000 0.0000 1819.9841 -7512.4098 306.3069 -9332.3939 -7512.4098 306.3069 -378.6556 -292.8632 31254.3774 -378.6556 -292.8632
ENERGY: 300000 2.0882 2.5345 1.5848 0.0000 -10900.1307 1480.2632 0.0000 0.0000 1780.6643 -7632.9956 299.6893 -9413.6600 -7562.1548 303.3396 289.9941 274.3319 30536.2826 -310.8118 -287.4616
ENERGY: 600000 1.7364 1.5960 4.1721 0.0000 -10872.1702 1546.1806 0.0000 0.0000 1775.0298 -7543.4553 298.7410 -9318.4851 -7556.1259 302.8412 852.7525 863.2795 30884.8264 -217.7104 -178.9897
ENERGY: 900000 1.4370 5.5478 2.5409 0.0000 -10879.1984 1533.7760 0.0000 0.0000 1802.2428 -7533.6539 303.3210 -9335.8967 -7554.8289 304.7531 903.1106 929.7426 30471.2781 2.4300 49.7549
ENERGY: 1200000 3.1854 9.5641 3.3854 0.0000 -10929.4871 1564.8147 0.0000 0.0000 1818.6069 -7529.9307 306.0751 -9348.5376 -7542.2720 305.1189 1143.2526 1191.6018 30234.9391 14.9072 72.8738
ENERGY: 1500000 2.3859 4.4471 2.4309 0.0000 -10790.5400 1445.2143 0.0000 0.0000 1878.7298 -7457.3321 316.1939 -9336.0618 -7544.4749 305.5511 -134.1363 -8.5772 30924.8788 -33.8887 29.6200
TCL: Running FEP window   9: Lambda1 0.39999999999999997 Lambda2 0.44999999999999996 [dLambda 0.04999999999999999]
TCL: Setting parameter firsttimestep to 0
TCL: Setting parameter alchLambda to 0.39999999999999997
Info: NONBONDED TABLE R-SQUARED SPACING: 0.0625
Info: NONBONDED TABLE SIZE: 705 POINTS
TCL: Setting parameter alchLambda2 to 0.44999999999999996
Info: NONBONDED TABLE R-SQUARED SPACING: 0.0625
Info: NONBONDED TABLE SIZE: 705 POINTS
TCL: Running for 1500000 steps
ETITLE: TS BOND ANGLE DIHED IMPRP ELECT VDW BOUNDARY MISC KINETIC TOTAL TEMP POTENTIAL TOTALAVG TEMPAVG PRESSURE GPRESSURE VOLUME PRESSAVG GPRESSAVG
ENERGY: 0 2.3859 4.4471 2.4309 0.0000 -10790.5401 1445.3067 0.0000 0.0000 1877.8279 -7458.1416 316.0421 -9335.9695 -7458.1416 316.0421 -100.9529 -2.7381 30924.8788 -100.9529 -2.7381
ENERGY: 300000 2.3666 2.1189 4.4241 0.0000 -10789.2574 1468.8178 0.0000 0.0000 1819.5175 -7492.0125 306.2284 -9311.5300 -7538.8045 305.8417 -42.4721 20.0520 31338.7428 -233.3080 -171.1340
ENERGY: 600000 1.8708 4.7046 3.2857 0.0000 -10947.0818 1509.3945 0.0000 0.0000 1769.6202 -7658.2061 297.8306 -9427.8263 -7573.7844 303.3472 239.2197 301.1349 30496.1831 -100.6450 -52.1163
ENERGY: 900000 2.2431 1.6961 5.6961 0.0000 -10806.0266 1432.3931 0.0000 0.0000 1845.6857 -7518.3125 310.6325 -9363.9981 -7579.3236 302.9910 119.5876 103.8117 30568.4999 47.5074 91.1541
ENERGY: 1200000 2.4162 4.8822 7.2227 0.0000 -10821.0786 1442.3684 0.0000 0.0000 1782.8515 -7581.3376 300.0574 -9364.1891 -7574.5516 302.4588 -220.9199 -219.5501 30922.5889 38.1610 75.3328
ENERGY: 1500000 0.9506 2.2200 4.2970 0.0000 -10843.3267 1450.2638 0.0000 0.0000 1763.4175 -7622.1777 296.7866 -9385.5951 -7579.5874 301.6996 -142.5649 -47.7923 30727.3129 4.7663 45.3995
TCL: Running FEP window  10: Lambda1 0.44999999999999996 Lambda2 0.49999999999999994 [dLambda 0.04999999999999999]
TCL: Setting parameter firsttimestep to 0
TCL: Setting parameter alchLambda to 0.44999999999999996
Info: NONBONDED TABLE R-SQUARED SPACING: 0.0625
Info: NONBONDED TABLE SIZE: 705 POINTS
TCL: Setting parameter alchLambda2 to 0.49999999999999994
Info: NONBONDED TABLE R-SQUARED SPACING: 0.0625
Info: NONBONDED TABLE SIZE: 705 POINTS
TCL: Running for 1500000 steps
ETITLE: TS BOND ANGLE DIHED IMPRP ELECT VDW BOUNDARY MISC KINETIC TOTAL TEMP POTENTIAL TOTALAVG TEMPAVG PRESSURE GPRESSURE VOLUME PRESSAVG GPRESSAVG
ENERGY: 0 0.9506 2.2200 4.2970 0.0000 -10843.3258 1451.2659 0.0000 0.0000 1762.5033 -7622.0889 296.6328 -9384.5922 -7622.0889 296.6328 -135.7989 -32.5604 30727.3129 -135.7989 -32.5604
ENERGY: 300000 4.1194 1.0302 1.5991 0.0000 -10925.8176 1506.2588 0.0000 0.0000 1730.2108 -7682.5993 291.1979 -9412.8101 -7598.9683 298.2448 150.5596 181.9476 30705.4630 259.6276 344.7228
ENERGY: 600000 1.4946 1.9858 3.3145 0.0000 -10657.8185 1328.2960 0.0000 0.0000 1813.8147 -7508.9128 305.2686 -9322.7275 -7592.7449 299.9286 -971.1278 -916.2110 31183.6722 -17.0578 65.5276
ENERGY: 900000 2.3914 1.6919 2.7434 0.0000 -10581.2621 1292.0776 0.0000 0.0000 1737.4036 -7544.9542 292.4085 -9282.3578 -7601.0060 298.5285 -1154.9204 -1097.6484 30783.1443 -158.9810 -80.4416
ENERGY: 1200000 1.4263 6.5081 5.2251 0.0000 -10747.9878 1410.4823 0.0000 0.0000 1810.0403 -7514.3057 304.6334 -9324.3460 -7595.8058 299.1612 -300.4898 -240.5736 31146.8739 -232.1961 -153.5223
ENERGY: 1500000 0.2710 0.9658 3.6079 0.0000 -10814.5443 1477.3638 0.0000 0.0000 1801.5549 -7530.7809 303.2052 -9332.3358 -7593.9610 299.6518 362.1848 454.6797 30640.2595 -254.0614 -180.3448
TCL: Running FEP window  11: Lambda1 0.49999999999999994 Lambda2 0.5499999999999999 [dLambda 0.04999999999999999]
TCL: Setting parameter firsttimestep to 0
TCL: Setting parameter alchLambda to 0.49999999999999994
Info: NONBONDED TABLE R-SQUARED SPACING: 0.0625
Info: NONBONDED TABLE SIZE: 705 POINTS
TCL: Setting parameter alchLambda2 to 0.5499999999999999
Info: NONBONDED TABLE R-SQUARED SPACING: 0.0625
Info: NONBONDED TABLE SIZE: 705 POINTS
TCL: Running for 1500000 steps
ETITLE: TS BOND ANGLE DIHED IMPRP ELECT VDW BOUNDARY MISC KINETIC TOTAL TEMP POTENTIAL TOTALAVG TEMPAVG PRESSURE GPRESSURE VOLUME PRESSAVG GPRESSAVG
ENERGY: 0 0.2710 0.9658 3.6079 0.0000 -10814.5455 1477.4729 0.0000 0.0000 1800.6668 -7531.5611 303.0558 -9332.2279 -7531.5611 303.0558 355.6397 460.0422 30640.2595 355.6397 460.0422
ENERGY: 300000 2.0779 2.1703 2.5494 0.0000 -10825.2304 1386.2837 0.0000 0.0000 1828.6776 -7603.4717 307.7700 -9432.1493 -7558.2509 302.6675 -1115.5830 -1023.6768 31298.3965 -335.9256 -259.5699
ENERGY: 600000 1.3441 3.3125 2.4347 0.0000 -10936.3844 1550.0203 0.0000 0.0000 1774.8080 -7604.4650 298.7037 -9379.2729 -7586.0838 300.2669 464.0117 564.7522 30951.7686 -67.1643 3.4199
ENERGY: 900000 1.3969 1.8763 2.2285 0.0000 -10924.3433 1499.7817 0.0000 0.0000 1755.3415 -7663.7184 295.4274 -9419.0599 -7604.2105 298.8974 317.3472 357.9028 30729.4883 -134.1109 -74.6216
ENERGY: 1200000 2.6210 1.9780 2.0030 0.0000 -10912.4871 1516.4198 0.0000 0.0000 1780.7428 -7608.7225 299.7025 -9389.4652 -7602.3271 299.6901 680.2790 792.7877 30351.0005 -135.5504 -75.2896
ENERGY: 1500000 1.9419 4.9345 2.9853 0.0000 -10825.2807 1410.0213 0.0000 0.0000 1812.7854 -7592.6122 305.0954 -9405.3977 -7603.6561 300.0163 -329.9995 -279.8344 30403.5059 -69.9447 -7.8090
TCL: Running FEP window  12: Lambda1 0.5499999999999999 Lambda2 0.6    [dLambda 0.050000000000000044]
TCL: Setting parameter firsttimestep to 0
TCL: Setting parameter alchLambda to 0.5499999999999999
Info: NONBONDED TABLE R-SQUARED SPACING: 0.0625
Info: NONBONDED TABLE SIZE: 705 POINTS
TCL: Setting parameter alchLambda2 to 0.6
Info: NONBONDED TABLE R-SQUARED SPACING: 0.0625
Info: NONBONDED TABLE SIZE: 705 POINTS
TCL: Running for 1500000 steps
ETITLE: TS BOND ANGLE DIHED IMPRP ELECT VDW BOUNDARY MISC KINETIC TOTAL TEMP POTENTIAL TOTALAVG TEMPAVG PRESSURE GPRESSURE VOLUME PRESSAVG GPRESSAVG
ENERGY: 0 1.9419 4.9345 2.9853 0.0000 -10825.3548 1410.3097 0.0000 0.0000 1811.8684 -7593.3149 304.9410 -9405.1833 -7593.3149 304.9410 -353.8421 -269.4039 30403.5059 -353.8421 -269.4039
ENERGY: 300000 0.7674 1.6978 2.6573 0.0000 -10718.0367 1349.4139 0.0000 0.0000 1815.9866 -7547.5137 305.6341 -9363.5003 -7588.4436 303.9047 -990.9742 -913.2246 31028.4820 -507.6851 -459.1434
ENERGY: 600000 3.1370 3.5750 1.3765 0.0000 -10872.2020 1474.0553 0.0000 0.0000 1803.1750 -7586.8833 303.4779 -9390.0583 -7591.9856 302.4591 148.4777 221.8007 30400.3511 -168.8351 -110.0589
ENERGY: 900000 3.4511 0.6710 2.7649 0.0000 -10819.9608 1497.8336 0.0000 0.0000 1835.3192 -7479.9211 308.8878 -9315.2402 -7571.7413 304.4774 414.9719 468.5130 30933.5582 -46.8051 18.1874
ENERGY: 1200000 1.7806 2.4931 0.7348 0.0000 -10570.8582 1289.8776 0.0000 0.0000 1786.0011 -7489.9709 300.5875 -9275.9721 -7570.2542 303.0380 -866.4260 -820.2366 30736.0701 -152.8409 -84.2290
ENERGY: 1500000 2.5160 3.0718 3.0177 0.0000 -10886.8813 1484.2908 0.0000 0.0000 1828.1995 -7565.7854 307.6896 -9393.9849 -7575.9909 302.4419 208.1175 339.5728 30675.7135 -116.1733 -44.1919
TCL: Running FEP window  13: Lambda1 0.6    Lambda2 0.65   [dLambda 0.050000000000000044]
TCL: Setting parameter firsttimestep to 0
TCL: Setting parameter alchLambda to 0.6
Info: NONBONDED TABLE R-SQUARED SPACING: 0.0625
Info: NONBONDED TABLE SIZE: 705 POINTS
TCL: Setting parameter alchLambda2 to 0.65
Info: NONBONDED TABLE R-SQUARED SPACING: 0.0625
Info: NONBONDED TABLE SIZE: 705 POINTS
TCL: Running for 1500000 steps
ETITLE: TS BOND ANGLE DIHED IMPRP ELECT VDW BOUNDARY MISC KINETIC TOTAL TEMP POTENTIAL TOTALAVG TEMPAVG PRESSURE GPRESSURE VOLUME PRESSAVG GPRESSAVG
ENERGY: 0 2.5160 3.0718 3.0177 0.0000 -10887.0031 1484.2738 0.0000 0.0000 1827.3637 -7566.7601 307.5489 -9394.1237 -7566.7601 307.5489 265.8350 346.4090 30675.7135 265.8350 346.4090
ENERGY: 300000 3.3254 5.2352 3.6600 0.0000 -10749.0811 1354.2860 0.0000 0.0000 1792.4996 -7590.0749 301.6812 -9382.5745 -7624.3404 299.2410 -796.4561 -677.1716 30758.0186 -81.7320 -18.0746
ENERGY: 600000 5.3081 1.2038 3.6174 0.0000 -10830.6730 1497.5147 0.0000 0.0000 1746.5688 -7576.4601 293.9510 -9323.0289 -7613.8177 298.5594 151.4256 270.7307 31134.3893 -196.9795 -124.4201
ENERGY: 900000 3.4835 1.0805 1.1312 0.0000 -10794.0223 1464.2633 0.0000 0.0000 1792.9159 -7531.1479 301.7513 -9324.0638 -7607.4084 300.2190 101.1595 222.5103 30676.9533 -205.6498 -126.3890
ENERGY: 1200000 4.2376 2.5499 4.6536 0.0000 -10804.5821 1479.9889 0.0000 0.0000 1770.4115 -7542.7407 297.9637 -9313.1522 -7592.3821 301.0943 40.9123 113.7598 31131.5521 -166.7514 -95.3777
ENERGY: 1500000 4.2666 3.5123 4.7303 0.0000 -10865.7252 1488.0467 0.0000 0.0000 1817.1483 -7548.0210 305.8296 -9365.1692 -7582.7188 301.1783 138.1536 178.6386 31025.9409 -105.5906 -42.7789
TCL: Running FEP window  14: Lambda1 0.65   Lambda2 0.7000000000000001 [dLambda 0.050000000000000044]
TCL: Setting parameter firsttimestep to 0
TCL: Setting parameter alchLambda to 0.65
Info: NONBONDED TABLE R-SQUARED SPACING: 0.0625
Info: NONBONDED TABLE SIZE: 705 POINTS
TCL: Setting parameter alchLambda2 to 0.7000000000000001
Info: NONBONDED TABLE R-SQUARED SPACING: 0.0625
Info: NONBONDED TABLE SIZE: 705 POINTS
TCL: Running for 1500000 steps
ETITLE: TS BOND ANGLE DIHED IMPRP ELECT VDW BOUNDARY MISC KINETIC TOTAL TEMP POTENTIAL TOTALAVG TEMPAVG PRESSURE GPRESSURE VOLUME PRESSAVG GPRESSAVG
ENERGY: 0 4.2666 3.5123 4.7303 0.0000 -10865.7488 1487.7563 0.0000 0.0000 1816.2749 -7549.2084 305.6826 -9365.4833 -7549.2084 305.6826 103.4125 181.6919 31025.9409 103.4125 181.6919
ENERGY: 300000 1.7927 3.5224 2.9444 0.0000 -10765.8769 1392.9630 0.0000 0.0000 1807.8715 -7556.7829 304.2683 -9364.6543 -7552.3526 305.0352 -321.7835 -180.2339 30292.8333 -183.3057 -94.5856
ENERGY: 600000 2.3545 5.1385 1.5468 0.0000 -10837.7271 1399.1681 0.0000 0.0000 1761.0880 -7668.4312 296.3946 -9429.5192 -7577.8634 301.1881 -581.9230 -492.4522 30795.9547 -286.9837 -213.3782
ENERGY: 900000 2.7137 3.6246 5.9445 0.0000 -10945.1216 1511.9049 0.0000 0.0000 1759.3749 -7661.5590 296.1063 -9420.9340 -7585.8599 299.6544 396.7082 460.0200 30410.0783 -197.5539 -134.6477
ENERGY: 1200000 2.8639 3.6187 6.5772 0.0000 -10781.2678 1405.7034 0.0000 0.0000 1757.8808 -7604.6238 295.8548 -9362.5046 -7585.7770 299.3940 -648.3890 -535.6036 31059.9131 -201.4983 -131.7671
ENERGY: 1500000 4.7623 1.4645 3.6930 0.0000 -10687.2990 1375.1342 0.0000 0.0000 1789.3224 -7512.9226 301.1465 -9302.2450 -7581.4302 299.6547 -351.6029 -272.8940 30726.5887 -214.7227 -142.6340
TCL: Running FEP window  15: Lambda1 0.7000000000000001 Lambda2 0.7500000000000001 [dLambda 0.050000000000000044]
TCL: Setting parameter firsttimestep to 0
TCL: Setting parameter alchLambda to 0.7000000000000001
Info: NONBONDED TABLE R-SQUARED SPACING: 0.0625
Info: NONBONDED TABLE SIZE: 705 POINTS
TCL: Setting parameter alchLambda2 to 0.7500000000000001
Info: NONBONDED TABLE R-SQUARED SPACING: 0.0625
Info: NONBONDED TABLE SIZE: 705 POINTS
TCL: Running for 1500000 steps
ETITLE: TS BOND ANGLE DIHED IMPRP ELECT VDW BOUNDARY MISC KINETIC TOTAL TEMP POTENTIAL TOTALAVG TEMPAVG PRESSURE GPRESSURE VOLUME PRESSAVG GPRESSAVG
ENERGY: 0 4.7623 1.4645 3.6930 0.0000 -10687.7325 1375.2120 0.0000 0.0000 1788.4172 -7514.1835 300.9941 -9302.6007 -7514.1835 300.9941 -358.4200 -267.3333 30726.5887 -358.4200 -267.3333
ENERGY: 300000 4.0611 3.1169 3.0144 0.0000 -10721.9653 1371.3054 0.0000 0.0000 1768.8547 -7571.6129 297.7017 -9340.4675 -7557.4650 298.9983 -543.7255 -501.2616 30761.2536 -27.4189 33.3528
ENERGY: 600000 4.2193 2.7926 4.2367 0.0000 -10992.0195 1490.4120 0.0000 0.0000 1766.5268 -7723.8320 297.3099 -9490.3588 -7611.5695 296.7497 -55.9558 77.6306 30385.9007 4.3795 91.1407
ENERGY: 900000 4.0719 2.5252 2.3124 0.0000 -10810.4815 1502.4157 0.0000 0.0000 1775.4447 -7523.7116 298.8108 -9299.1562 -7609.1719 295.9300 473.9289 617.8509 30796.9791 97.3592 179.0916
ENERGY: 1200000 2.0636 1.5038 1.4725 0.0000 -10860.5134 1449.0274 0.0000 0.0000 1839.6345 -7566.8117 309.6141 -9406.4462 -7610.5883 296.7839 -91.6708 -70.1051 30734.3852 46.6438 128.5423
ENERGY: 1500000 4.6295 4.9151 6.4363 0.0000 -10806.0313 1437.5091 0.0000 0.0000 1768.8836 -7583.6576 297.7066 -9352.5412 -7611.1401 296.7244 238.6342 297.2278 30399.5914 31.7515 112.5577
TCL: Running FEP window  16: Lambda1 0.7500000000000001 Lambda2 0.8000000000000002 [dLambda 0.050000000000000044]
TCL: Setting parameter firsttimestep to 0
TCL: Setting parameter alchLambda to 0.7500000000000001
Info: NONBONDED TABLE R-SQUARED SPACING: 0.0625
Info: NONBONDED TABLE SIZE: 705 POINTS
TCL: Setting parameter alchLambda2 to 0.8000000000000002
Info: NONBONDED TABLE R-SQUARED SPACING: 0.0625
Info: NONBONDED TABLE SIZE: 705 POINTS
TCL: Running for 1500000 steps
ETITLE: TS BOND ANGLE DIHED IMPRP ELECT VDW BOUNDARY MISC KINETIC TOTAL TEMP POTENTIAL TOTALAVG TEMPAVG PRESSURE GPRESSURE VOLUME PRESSAVG GPRESSAVG
ENERGY: 0 4.6295 4.9151 6.4363 0.0000 -10806.7775 1437.5134 0.0000 0.0000 1768.0158 -7585.2673 297.5605 -9353.2831 -7585.2673 297.5605 227.5579 302.2099 30399.5914 227.5579 302.2099
ENERGY: 300000 0.9181 1.2281 2.8202 0.0000 -10795.1373 1450.1065 0.0000 0.0000 1814.1685 -7525.8960 305.3281 -9340.0644 -7592.3792 299.3276 179.3579 254.9683 30608.8883 -67.2990 -11.2147
ENERGY: 600000 0.7278 4.8426 5.8901 0.0000 -10712.1668 1366.0649 0.0000 0.0000 1776.0084 -7558.6330 298.9057 -9334.6415 -7567.3788 300.9059 -508.0973 -458.3969 30693.2971 -171.6531 -111.5440
ENERGY: 900000 2.1022 3.2859 2.4300 0.0000 -10704.0062 1424.9700 0.0000 0.0000 1771.5145 -7499.7037 298.1494 -9271.2182 -7575.4114 299.4154 -116.6362 21.4561 30677.8585 -78.7402 -13.9170
ENERGY: 1200000 2.2929 2.3184 2.7882 0.0000 -10986.0225 1517.0755 0.0000 0.0000 1761.2079 -7700.3395 296.4148 -9461.5475 -7601.0629 297.5193 396.7818 469.4301 30202.2258 -56.2813 3.7041
ENERGY: 1500000 1.7818 3.0907 3.0190 0.0000 -10831.2841 1438.8816 0.0000 0.0000 1752.9565 -7631.5545 295.0260 -9384.5110 -7593.3218 298.3413 -222.3510 -149.4890 30804.1845 -102.8164 -39.4896
TCL: Running FEP window  17: Lambda1 0.8000000000000002 Lambda2 0.8500000000000002 [dLambda 0.050000000000000044]
TCL: Setting parameter firsttimestep to 0
TCL: Setting parameter alchLambda to 0.8000000000000002
Info: NONBONDED TABLE R-SQUARED SPACING: 0.0625
Info: NONBONDED TABLE SIZE: 705 POINTS
TCL: Setting parameter alchLambda2 to 0.8500000000000002
Info: NONBONDED TABLE R-SQUARED SPACING: 0.0625
Info: NONBONDED TABLE SIZE: 705 POINTS
TCL: Running for 1500000 steps
ETITLE: TS BOND ANGLE DIHED IMPRP ELECT VDW BOUNDARY MISC KINETIC TOTAL TEMP POTENTIAL TOTALAVG TEMPAVG PRESSURE GPRESSURE VOLUME PRESSAVG GPRESSAVG
ENERGY: 0 1.7818 3.0907 3.0190 0.0000 -10833.2746 1439.6167 0.0000 0.0000 1752.0840 -7633.6824 294.8792 -9385.7664 -7633.6824 294.8792 -204.8322 -137.5024 30804.1845 -204.8322 -137.5024
ENERGY: 300000 2.7627 4.1458 2.1293 0.0000 -10865.5185 1514.5789 0.0000 0.0000 1806.5439 -7535.3578 304.0449 -9341.9018 -7584.6189 301.1081 553.7459 607.6705 30743.9160 -18.0955 55.5221
ENERGY: 600000 1.0656 0.9114 5.0078 0.0000 -10909.2793 1497.0054 0.0000 0.0000 1824.8153 -7580.4738 307.1200 -9405.2891 -7567.5832 303.7442 229.7048 334.2936 30607.5901 -182.0700 -115.8815
ENERGY: 900000 2.0481 2.8001 1.7396 0.0000 -10899.6884 1524.8410 0.0000 0.0000 1771.6335 -7596.6260 298.1694 -9368.2596 -7573.1147 302.7330 442.6490 489.4210 31122.3059 -142.4097 -75.4307
ENERGY: 1200000 2.9766 2.2126 4.6149 0.0000 -10963.0998 1497.0552 0.0000 0.0000 1814.9969 -7641.2437 305.4676 -9456.2406 -7569.6118 303.7823 -334.2813 -180.1086 31036.1092 -114.6898 -42.8408
ENERGY: 1500000 3.8204 2.4819 1.7798 0.0000 -10727.4688 1418.6618 0.0000 0.0000 1742.0130 -7558.7119 293.1842 -9300.7248 -7577.8409 302.5694 131.4067 113.9767 30842.3477 -85.3700 -20.9971
TCL: Running FEP window  18: Lambda1 0.8500000000000002 Lambda2 0.9000000000000002 [dLambda 0.050000000000000044]
TCL: Setting parameter firsttimestep to 0
TCL: Setting parameter alchLambda to 0.8500000000000002
Info: NONBONDED TABLE R-SQUARED SPACING: 0.0625
Info: NONBONDED TABLE SIZE: 705 POINTS
TCL: Setting parameter alchLambda2 to 0.9000000000000002
Info: NONBONDED TABLE R-SQUARED SPACING: 0.0625
Info: NONBONDED TABLE SIZE: 705 POINTS
TCL: Running for 1500000 steps
ETITLE: TS BOND ANGLE DIHED IMPRP ELECT VDW BOUNDARY MISC KINETIC TOTAL TEMP POTENTIAL TOTALAVG TEMPAVG PRESSURE GPRESSURE VOLUME PRESSAVG GPRESSAVG
ENERGY: 0 3.8204 2.4819 1.7798 0.0000 -10728.9133 1419.2985 0.0000 0.0000 1741.0885 -7560.4442 293.0286 -9301.5327 -7560.4442 293.0286 47.5873 126.3302 30842.3477 47.5873 126.3302
ENERGY: 300000 0.8059 1.1851 3.9468 0.0000 -10815.0930 1453.2025 0.0000 0.0000 1756.3356 -7599.6171 295.5947 -9355.9528 -7615.2143 297.7648 140.3868 173.1345 30513.0683 260.1760 327.6663
ENERGY: 600000 1.4493 2.2082 1.9969 0.0000 -10832.0119 1449.1880 0.0000 0.0000 1789.4354 -7587.7340 301.1655 -9377.1694 -7606.2381 297.3602 -55.8382 -10.0943 30649.9660 86.6703 143.2279
ENERGY: 900000 2.9845 4.0198 2.2795 0.0000 -10880.4341 1449.0968 0.0000 0.0000 1781.1483 -7640.9051 299.7708 -9422.0534 -7604.7540 297.0912 -99.3669 -97.5971 30659.5804 21.9157 81.6548
ENERGY: 1200000 1.8820 5.9564 2.8325 0.0000 -10955.1360 1474.3125 0.0000 0.0000 1773.5155 -7696.6372 298.4861 -9470.1527 -7604.1934 298.5281 -120.9132 -37.9699 30589.3834 0.5584 71.9305
ENERGY: 1500000 3.8676 6.3503 3.1842 0.0000 -10843.7609 1460.4637 0.0000 0.0000 1763.7165 -7606.1786 296.8370 -9369.8950 -7605.7090 298.5753 102.5943 186.1957 30454.0537 67.7769 137.4262
TCL: Running FEP window  19: Lambda1 0.9000000000000002 Lambda2 0.9500000000000003 [dLambda 0.050000000000000044]
TCL: Setting parameter firsttimestep to 0
TCL: Setting parameter alchLambda to 0.9000000000000002
Info: NONBONDED TABLE R-SQUARED SPACING: 0.0625
Info: NONBONDED TABLE SIZE: 705 POINTS
TCL: Setting parameter alchLambda2 to 0.9500000000000003
Info: NONBONDED TABLE R-SQUARED SPACING: 0.0625
Info: NONBONDED TABLE SIZE: 705 POINTS
TCL: Running for 1500000 steps
ETITLE: TS BOND ANGLE DIHED IMPRP ELECT VDW BOUNDARY MISC KINETIC TOTAL TEMP POTENTIAL TOTALAVG TEMPAVG PRESSURE GPRESSURE VOLUME PRESSAVG GPRESSAVG
ENERGY: 0 3.8676 6.3503 3.1842 0.0000 -10845.3922 1460.2128 0.0000 0.0000 1762.8823 -7608.8950 296.6966 -9371.7772 -7608.8950 296.6966 113.3110 190.4993 30454.0537 113.3110 190.4993
ENERGY: 300000 1.1263 4.8933 4.0741 0.0000 -10732.2073 1356.8986 0.0000 0.0000 1808.7740 -7556.4409 304.4202 -9365.2150 -7607.3368 299.7618 -867.9213 -792.9641 30983.3983 -173.5057 -102.8774
ENERGY: 600000 2.1030 2.2620 5.3265 0.0000 -10741.3179 1428.7326 0.0000 0.0000 1808.8556 -7494.0383 304.4340 -9302.8939 -7582.5079 301.5171 -12.9973 64.6215 31020.5421 -8.6575 70.4992
ENERGY: 900000 3.2931 2.8421 3.1668 0.0000 -10794.9712 1463.3281 0.0000 0.0000 1815.7984 -7506.5426 305.6025 -9322.3411 -7569.7070 301.3244 105.6555 180.4324 30919.0804 46.6180 121.7686
ENERGY: 1200000 2.3752 2.3015 2.6545 0.0000 -10845.6397 1463.3082 0.0000 0.0000 1747.8279 -7627.1724 294.1629 -9375.0004 -7564.5202 301.3098 -7.6493 46.1063 30698.6818 23.2411 93.2543
ENERGY: 1500000 1.3985 2.6185 3.0109 0.0000 -10734.1937 1352.8923 0.0000 0.0000 1792.7215 -7581.5520 301.7186 -9374.2735 -7564.6250 301.1469 -672.1405 -586.2779 30772.3916 -9.3776 58.4450
TCL: Running FEP window  20: Lambda1 0.9500000000000003 Lambda2 1.0    [dLambda 0.04999999999999971]
TCL: Setting parameter firsttimestep to 0
TCL: Setting parameter alchLambda to 0.9500000000000003
Info: NONBONDED TABLE R-SQUARED SPACING: 0.0625
Info: NONBONDED TABLE SIZE: 705 POINTS
TCL: Setting parameter alchLambda2 to 1.0
Info: NONBONDED TABLE R-SQUARED SPACING: 0.0625
Info: NONBONDED TABLE SIZE: 705 POINTS
TCL: Running for 1500000 steps
ETITLE: TS BOND ANGLE DIHED IMPRP ELECT VDW BOUNDARY MISC KINETIC TOTAL TEMP POTENTIAL TOTALAVG TEMPAVG PRESSURE GPRESSURE VOLUME PRESSAVG GPRESSAVG
ENERGY: 0 1.3985 2.6185 3.0109 0.0000 -10736.0072 1353.2095 0.0000 0.0000 1791.8141 -7583.9558 301.5658 -9375.7698 -7583.9558 301.5658 -651.4468 -574.5221 30772.3916 -651.4468 -574.5221
ENERGY: 300000 2.3585 3.7416 3.5030 0.0000 -10708.5849 1413.2848 0.0000 0.0000 1823.4480 -7462.2490 306.8899 -9285.6969 -7532.4304 305.9349 -209.4268 -33.6292 31016.7213 -94.4148 26.4749
ENERGY: 600000 1.4821 1.8451 1.8902 0.0000 -10816.6532 1446.0314 0.0000 0.0000 1844.6820 -7520.7225 310.4636 -9365.4044 -7534.7826 306.8376 -205.1942 -117.0849 31057.9379 -152.4577 -66.3040
ENERGY: 900000 3.6442 2.2198 2.9770 0.0000 -10896.8051 1465.0614 0.0000 0.0000 1779.8355 -7643.0673 299.5498 -9422.9028 -7558.6147 304.8958 -206.9926 -165.6319 30649.7159 -116.3336 -44.5319
ENERGY: 1200000 2.2652 3.2449 1.4941 0.0000 -10854.7412 1443.5836 0.0000 0.0000 1798.4522 -7605.7011 302.6831 -9404.1534 -7565.1370 303.6900 -158.1414 -64.4347 30773.5286 36.9872 114.0075
ENERGY: 1500000 1.2029 2.0917 3.5793 0.0000 -10841.9550 1458.4352 0.0000 0.0000 1768.9788 -7607.6672 297.7226 -9376.6459 -7568.5030 303.5042 110.0545 145.3774 30808.0005 -31.8005 33.9191
TCL: Exiting due to exit command.
