Info: SIMULATION PARAMETERS:
Info: TIMESTEP               2
Info: NUMBER OF STEPS        0
Info: STEPS PER CYCLE        10
Info: PERIODIC CELL BASIS 1  30.9756 0 0
Info: PERIODIC CELL BASIS 2  0 30.3328 0
Info: PERIODIC CELL BASIS 3  0 0 32.0496
Info: PERIODIC CELL CENTER   0 0 0
Info: WRAPPING WATERS AROUND PERIODIC BOUNDARIES ON OUTPUT.
Info: WRAPPING ALL CLUSTERS AROUND PERIODIC BOUNDARIES ON OUTPUT.
Info: FIRST LDB TIMESTEP     50
Info: LAST LDB TIMESTEP     -1
Info: HOM BACKGROUND SCALING 1
Info: PME BACKGROUND SCALING 1
Info: MIN ATOMS PER PATCH    40
Info: EMPTY PATCH LOAD       40 ATOMS
Info: VELOCITY FILE          mobley_628086_equil.vel
Info: CENTER OF MASS MOVING INITIALLY? NO
Info: DIELECTRIC             1
Info: EXCLUDE                SCALED ONE-FOUR
Info: 1-4 ELECTROSTATICS SCALED BY 0.833333
Info: MODIFIED 1-4 VDW PARAMETERS WILL BE USED
Info: DCD FILENAME           mobley_628086_prod.dcd
Info: DCD FREQUENCY          100000
Info: DCD FIRST STEP         100000
Info: DCD FILE WILL CONTAIN UNIT CELL DATA
Info: XST FILENAME           mobley_628086_prod.xst
Info: XST FREQUENCY          100000
Info: NO VELOCITY DCD OUTPUT
Info: NO FORCE DCD OUTPUT
Info: OUTPUT FILENAME        mobley_628086_prod
Info: BINARY OUTPUT FILES WILL BE USED
Info: RESTART FILENAME       mobley_628086_prod.restart
Info: RESTART FREQUENCY      100000
Info: BINARY RESTART FILES WILL BE USED
Info: CUTOFF                 9
Info: PAIRLIST DISTANCE      11
Info: PAIRLIST SHRINK RATE   0.01
Info: PAIRLIST GROW RATE     0.01
Info: PAIRLIST TRIGGER       0.3
Info: PAIRLISTS PER CYCLE    2
Info: PAIRLISTS ENABLED
Info: MARGIN                 2
Info: HYDROGEN GROUP CUTOFF  2.5
Info: PATCH DIMENSION        15.5
Info: ENERGY OUTPUT STEPS    100000
Info: ENERGY EVALUATION STEPS    100000
Info: OUTPUT ENERGY PRECISION 4
Info: CROSSTERM ENERGY INCLUDED IN DIHEDRAL
Info: TIMING OUTPUT STEPS    1000000
Info: PRESSURE OUTPUT STEPS  100000
Info: ALCHEMICAL FEP ON
Info: FEP CURRENT LAMBDA VALUE     0
Info: FEP COMPARISON LAMBDA VALUE  0.05
Info: FEP INTRA-ALCHEMICAL NON-BONDED INTERACTIONS WILL BE RETAINED
Info: FEP INTRA-ALCHEMICAL BONDED INTERACTIONS WILL BE RETAINED
Info: FEP VDW SHIFTING COEFFICIENT 5
Info: FEP ELEC. ACTIVE FOR ANNIHILATED PARTICLES BETWEEN LAMBDA = 0 AND LAMBDA = 0.5
Info: FEP ELEC. ACTIVE FOR EXNIHILATED PARTICLES BETWEEN LAMBDA = 0.5 AND LAMBDA = 1
Info: FEP VDW ACTIVE FOR ANNIHILATED PARTICLES BETWEEN LAMBDA = 0 AND LAMBDA = 1
Info: FEP VDW ACTIVE FOR EXNIHILATED PARTICLES BETWEEN LAMBDA = 0 AND LAMBDA = 1
Info: FEP BOND ACTIVE FOR ANNIHILATED PARTICLES BETWEEN LAMBDA = 1 AND LAMBDA = 1
Info: FEP BOND ACTIVE FOR EXNIHILATED PARTICLES BETWEEN LAMBDA = 0 AND LAMBDA = 0
Info: LANGEVIN DYNAMICS ACTIVE
Info: LANGEVIN TEMPERATURE   300
Info: LANGEVIN USING BBK INTEGRATOR
Info: LANGEVIN DAMPING COEFFICIENT IS 1 INVERSE PS
Info: LANGEVIN DYNAMICS APPLIED TO HYDROGENS
Info: LANGEVIN PISTON PRESSURE CONTROL ACTIVE
Info:        TARGET PRESSURE IS 1.01325 BAR
Info:     OSCILLATION PERIOD IS 50 FS
Info:             DECAY TIME IS 25 FS
Info:     PISTON TEMPERATURE IS 300 K
Info:       PRESSURE CONTROL IS GROUP-BASED
Info:    INITIAL STRAIN RATE IS -0.000149908 -0.000149908 -0.000149908
Info:       CELL FLUCTUATION IS ISOTROPIC
Info: PARTICLE MESH EWALD (PME) ACTIVE
Info: PME TOLERANCE               1e-06
Info: PME EWALD COEFFICIENT       0.348832
Info: PME INTERPOLATION ORDER     4
Info: PME GRID DIMENSIONS         32 32 36
Info: PME MAXIMUM GRID SPACING    1
Info: PME CALCULATION WILL BE PERFORMED ON GPU
Info: FULL ELECTROSTATIC EVALUATION FREQUENCY      2
Info: USING VERLET I (r-RESPA) MTS SCHEME.
Info: C1 SPLITTING OF LONG RANGE ELECTROSTATICS
Info: PLACING ATOMS IN PATCHES BY HYDROGEN GROUPS
Info: RIGID BONDS TO HYDROGEN : ALL
Info:         ERROR TOLERANCE : 1e-08
Info:          MAX ITERATIONS : 100
Info: RIGID WATER USING SETTLE ALGORITHM
Info: RANDOM NUMBER SEED     1742563027
Info: USE HYDROGEN BONDS?    NO
Info: Using AMBER format force field!
Info: AMBER PARM FILE        mobley_628086.prmtop
Info: COORDINATE PDB         mobley_628086.pdb
Info: Exclusions will be read from PARM file!
Info: SCNB (VDW SCALING)     2
Info: USING ARITHMETIC MEAN TO COMBINE L-J SIGMA PARAMETERS
Info: BINARY COORDINATES     mobley_628086_equil.coor
Info: SUMMARY OF PARAMETERS:
Info: 8 BONDS
Info: 9 ANGLES
Info:   9 HARMONIC
Info:   0 COSINE-BASED
Info: 7 DIHEDRAL
Info: 0 IMPROPER
Info: 0 CROSSTERM
Info: 0 VDW
Info: 36 VDW_PAIRS
Info: 0 NBTHOLE_PAIRS
Info: To read alchdata from file: mobley_628086.pdb
Info: To read alchflag data from column: 5
Info: STRUCTURE SUMMARY:
Info: 2910 ATOMS
Info: 2909 BONDS
Info: 19 ANGLES
Info: 24 DIHEDRALS
Info: 0 IMPROPERS
Info: 0 CROSSTERMS
Info: 2949 EXCLUSIONS
Info: 2903 RIGID BONDS
Info: ALCH: 0 ATOMS TO DISAPPEAR IN FINAL STATE
Info: ALCH: 12 ATOMS TO APPEAR IN FINAL STATE
Info: 5827 DEGREES OF FREEDOM
Info: 973 HYDROGEN GROUPS
Info: 4 ATOMS IN LARGEST HYDROGEN GROUP
Info: 973 MIGRATION GROUPS
Info: 4 ATOMS IN LARGEST MIGRATION GROUP
Info: TOTAL MASS = 17517.5 amu
Info: TOTAL CHARGE = -0.000100069 e
Info: MASS DENSITY = 0.965999 g/cm^3
Info: ATOM DENSITY = 0.0966357 atoms/A^3
Info: ADDED 0 IMPLICIT EXCLUSIONS
Info: NONBONDED TABLE R-SQUARED SPACING: 0.0625
Info: NONBONDED TABLE SIZE: 705 POINTS
Info: REMOVING COM VELOCITY 0.0883028 0.0286597 -0.0137354
Info: Use 3D box decompostion in PME FFT.
Info: Updated CUDA force table with 4096 elements.
Info: Updated CUDA LJ table with 8 x 8 elements.
Info: Found 15 unique exclusion lists needing 28 bytes
TCL: Running for 1500000 steps
ETITLE: TS BOND ANGLE DIHED IMPRP ELECT VDW BOUNDARY MISC KINETIC TOTAL TEMP POTENTIAL TOTALAVG TEMPAVG PRESSURE GPRESSURE VOLUME PRESSAVG GPRESSAVG
ENERGY: 0 0.9942 10.0883 1.7350 0.0000 -10539.1851 1443.1675 0.0000 0.0000 1690.7423 -7392.4579 292.0268 -9083.2001 -7392.4579 292.0268 79.5675 159.1119 30113.1070 79.5675 159.1119
ENERGY: 300000 2.4953 6.0684 1.9108 0.0000 -10395.8924 1333.2896 0.0000 0.0000 1737.0281 -7315.1001 300.0214 -9052.1282 -7332.5757 298.1017 -723.5562 -603.4187 30058.5966 -10.1714 31.1807
ENERGY: 600000 2.6238 9.1439 1.4128 0.0000 -10586.8062 1404.6685 0.0000 0.0000 1724.4598 -7444.4975 297.8506 -9168.9573 -7361.3637 297.2300 -349.0073 -319.7488 29650.7417 -71.7308 -23.3744
ENERGY: 900000 1.8278 2.9144 0.9056 0.0000 -10594.6558 1456.7120 0.0000 0.0000 1695.7666 -7436.5295 292.8947 -9132.2961 -7369.0563 297.5651 287.0567 300.5206 29568.9196 -39.7318 13.4968
ENERGY: 1200000 2.1909 3.6416 1.1770 0.0000 -10573.4521 1454.2556 0.0000 0.0000 1759.5208 -7352.6663 303.9064 -9112.1871 -7369.5973 298.0893 41.6713 108.3126 29920.1085 20.3606 75.8724
ENERGY: 1500000 1.1172 7.1534 1.1733 0.0000 -10583.3552 1436.1367 0.0000 0.0000 1712.9061 -7424.8684 295.8550 -9137.7746 -7372.2857 298.3080 -116.8903 -85.9331 30074.0305 -18.2694 32.9339
TCL: Running FEP window   2: Lambda1 0.05   Lambda2 0.1    [dLambda 0.05  ]
TCL: Setting parameter firsttimestep to 0
TCL: Setting parameter alchLambda to 0.05
Info: NONBONDED TABLE R-SQUARED SPACING: 0.0625
Info: NONBONDED TABLE SIZE: 705 POINTS
TCL: Setting parameter alchLambda2 to 0.1
Info: NONBONDED TABLE R-SQUARED SPACING: 0.0625
Info: NONBONDED TABLE SIZE: 705 POINTS
TCL: Running for 1500000 steps
ETITLE: TS BOND ANGLE DIHED IMPRP ELECT VDW BOUNDARY MISC KINETIC TOTAL TEMP POTENTIAL TOTALAVG TEMPAVG PRESSURE GPRESSURE VOLUME PRESSAVG GPRESSAVG
ENERGY: 0 1.1172 7.1534 1.1733 0.0000 -10583.3536 1438.0391 0.0000 0.0000 1712.0373 -7423.8333 295.7049 -9135.8706 -7423.8333 295.7049 -160.0080 -79.8823 30074.0305 -160.0080 -79.8823
ENERGY: 300000 2.6187 4.7610 2.8848 0.0000 -10644.9389 1524.2047 0.0000 0.0000 1730.2032 -7380.2665 298.8426 -9110.4697 -7383.0127 297.1113 855.4746 917.0664 29830.7117 270.7650 313.2308
ENERGY: 600000 1.4091 4.2791 1.1271 0.0000 -10583.7668 1475.2047 0.0000 0.0000 1754.9287 -7346.8181 303.1132 -9101.7468 -7363.3507 300.0252 234.1125 279.1581 30176.0583 148.6578 198.5848
ENERGY: 900000 0.6266 9.4684 2.6593 0.0000 -10542.3975 1444.7635 0.0000 0.0000 1706.8689 -7378.0109 294.8122 -9084.8797 -7364.0792 298.8783 86.2982 130.9119 30043.7764 32.2758 84.7634
ENERGY: 1200000 2.3581 5.9846 1.2065 0.0000 -10544.8144 1391.2980 0.0000 0.0000 1742.1109 -7401.8564 300.8993 -9143.9673 -7363.2659 298.9254 -216.5250 -177.2153 29667.1928 -29.7955 24.9676
ENERGY: 1500000 1.6114 4.2724 0.7731 0.0000 -10469.1596 1389.3565 0.0000 0.0000 1718.4706 -7354.6758 296.8161 -9073.1463 -7363.0846 298.8608 -177.9617 -111.2372 29701.3248 23.7552 79.8037
TCL: Running FEP window   3: Lambda1 0.1    Lambda2 0.15000000000000002 [dLambda 0.05000000000000002]
TCL: Setting parameter firsttimestep to 0
TCL: Setting parameter alchLambda to 0.1
Info: NONBONDED TABLE R-SQUARED SPACING: 0.0625
Info: NONBONDED TABLE SIZE: 705 POINTS
TCL: Setting parameter alchLambda2 to 0.15000000000000002
Info: NONBONDED TABLE R-SQUARED SPACING: 0.0625
Info: NONBONDED TABLE SIZE: 705 POINTS
TCL: Running for 1500000 steps
ETITLE: TS BOND ANGLE DIHED IMPRP ELECT VDW BOUNDARY MISC KINETIC TOTAL TEMP POTENTIAL TOTALAVG TEMPAVG PRESSURE GPRESSURE VOLUME PRESSAVG GPRESSAVG
ENERGY: 0 1.6114 4.2724 0.7731 0.0000 -10469.1598 1390.5397 0.0000 0.0000 1717.5817 -7354.3816 296.6626 -9071.9633 -7354.3816 296.6626 -190.3835 -104.9364 29701.3248 -190.3835 -104.9364
ENERGY: 300000 3.3979 3.0725 1.1299 0.0000 -10517.7898 1392.9833 0.0000 0.0000 1718.5401 -7398.6661 296.8281 -9117.2062 -7360.8728 300.3802 -230.3453 -178.6629 29699.2946 -161.3583 -110.2096
ENERGY: 600000 1.9291 4.3485 0.8589 0.0000 -10553.7436 1441.7233 0.0000 0.0000 1746.0195 -7358.8644 301.5744 -9104.8839 -7353.2528 299.8381 203.3876 290.4673 29555.7150 39.5708 113.6735
ENERGY: 900000 2.2863 5.0296 0.8923 0.0000 -10526.5032 1413.6788 0.0000 0.0000 1770.0801 -7334.5361 305.7302 -9104.6162 -7347.7670 300.0672 -361.6618 -228.9070 30170.6129 -157.9792 -87.7462
ENERGY: 1200000 1.6577 4.8431 1.3630 0.0000 -10462.1441 1396.9745 0.0000 0.0000 1726.6560 -7330.6498 298.2299 -9057.3059 -7356.3145 299.3999 -158.5952 -126.2784 30012.4683 -130.6719 -63.1738
ENERGY: 1500000 2.0292 4.8867 0.6272 0.0000 -10464.1570 1383.9875 0.0000 0.0000 1695.2236 -7377.4029 292.8009 -9072.6265 -7351.1171 299.4533 -343.6542 -288.0198 29952.7811 -146.8069 -82.8166
TCL: Running FEP window   4: Lambda1 0.15000000000000002 Lambda2 0.2    [dLambda 0.04999999999999999]
TCL: Setting parameter firsttimestep to 0
TCL: Setting parameter alchLambda to 0.15000000000000002
Info: NONBONDED TABLE R-SQUARED SPACING: 0.0625
Info: NONBONDED TABLE SIZE: 705 POINTS
TCL: Setting parameter alchLambda2 to 0.2
Info: NONBONDED TABLE R-SQUARED SPACING: 0.0625
Info: NONBONDED TABLE SIZE: 705 POINTS
TCL: Running for 1500000 steps
ETITLE: TS BOND ANGLE DIHED IMPRP ELECT VDW BOUNDARY MISC KINETIC TOTAL TEMP POTENTIAL TOTALAVG TEMPAVG PRESSURE GPRESSURE VOLUME PRESSAVG GPRESSAVG
ENERGY: 0 2.0292 4.8867 0.6272 0.0000 -10464.1565 1384.3960 0.0000 0.0000 1694.3758 -7377.8418 292.6544 -9072.2175 -7377.8418 292.6544 -363.1285 -282.7032 29952.7811 -363.1285 -282.7032
ENERGY: 300000 1.9852 3.5823 1.1532 0.0000 -10573.4268 1473.9625 0.0000 0.0000 1788.1367 -7304.6070 308.8489 -9092.7436 -7319.8113 302.5915 412.7150 477.3835 29776.3702 109.3397 194.7414
ENERGY: 600000 2.1280 4.3998 1.7730 0.0000 -10418.4846 1387.6522 0.0000 0.0000 1714.3174 -7308.2141 296.0988 -9022.5314 -7299.8352 303.1932 -208.3166 -71.8585 29828.3740 -33.3306 47.9333
ENERGY: 900000 3.6541 8.8526 1.5308 0.0000 -10532.4760 1460.8316 0.0000 0.0000 1712.5845 -7345.0223 295.7995 -9057.6068 -7325.2620 301.2810 326.9437 360.3680 30180.7762 187.3954 251.2024
ENERGY: 1200000 2.5646 6.3801 0.9626 0.0000 -10558.0732 1460.8141 0.0000 0.0000 1748.5630 -7338.7887 302.0137 -9087.3517 -7327.8354 300.7804 672.3714 655.6110 29476.3932 322.9832 382.3148
ENERGY: 1500000 2.7675 9.9169 1.1325 0.0000 -10522.3284 1404.2810 0.0000 0.0000 1804.1856 -7300.0449 311.6209 -9104.2305 -7326.2832 301.4750 -413.1003 -351.1865 30305.1483 252.7065 314.6047
TCL: Running FEP window   5: Lambda1 0.2    Lambda2 0.25   [dLambda 0.04999999999999999]
TCL: Setting parameter firsttimestep to 0
TCL: Setting parameter alchLambda to 0.2
Info: NONBONDED TABLE R-SQUARED SPACING: 0.0625
Info: NONBONDED TABLE SIZE: 705 POINTS
TCL: Setting parameter alchLambda2 to 0.25
Info: NONBONDED TABLE R-SQUARED SPACING: 0.0625
Info: NONBONDED TABLE SIZE: 705 POINTS
TCL: Running for 1500000 steps
ETITLE: TS BOND ANGLE DIHED IMPRP ELECT VDW BOUNDARY MISC KINETIC TOTAL TEMP POTENTIAL TOTALAVG TEMPAVG PRESSURE GPRESSURE VOLUME PRESSAVG GPRESSAVG
ENERGY: 0 2.7675 9.9169 1.1325 0.0000 -10522.3286 1405.1895 0.0000 0.0000 1803.3169 -7300.0052 311.4709 -9103.3221 -7300.0052 311.4709 -428.8754 -346.7919 30305.1483 -428.8754 -346.7919
ENERGY: 300000 2.9059 5.8076 1.2785 0.0000 -10659.1251 1507.5126 0.0000 0.0000 1761.7766 -7379.8439 304.2960 -9141.6205 -7358.3116 304.0784 529.1539 505.4996 29810.9979 -251.1845 -188.2308
ENERGY: 600000 0.5408 8.4605 1.5103 0.0000 -10530.4996 1416.2553 0.0000 0.0000 1781.2479 -7322.4849 307.6591 -9103.7328 -7379.1194 301.0053 -148.9030 -72.7251 30197.4137 -340.2471 -281.1848
ENERGY: 900000 4.4031 8.3844 1.0252 0.0000 -10579.3879 1470.4864 0.0000 0.0000 1755.6917 -7339.3971 303.2450 -9095.0888 -7369.4579 300.5336 616.6784 676.4896 29410.0527 -101.4607 -45.7245
ENERGY: 1200000 2.3728 5.2421 2.9608 0.0000 -10740.3067 1468.3414 0.0000 0.0000 1718.8269 -7542.5628 296.8776 -9261.3897 -7381.1647 299.9881 -125.4865 -53.4715 29529.9111 -80.1023 -20.2298
ENERGY: 1500000 2.2179 7.5895 2.0168 0.0000 -10571.8102 1413.8930 0.0000 0.0000 1752.5030 -7393.5901 302.6942 -9146.0931 -7378.1463 299.6152 -358.8791 -245.7503 29735.9146 -90.2293 -27.7662
TCL: Running FEP window   6: Lambda1 0.25   Lambda2 0.3    [dLambda 0.04999999999999999]
TCL: Setting parameter firsttimestep to 0
TCL: Setting parameter alchLambda to 0.25
Info: NONBONDED TABLE R-SQUARED SPACING: 0.0625
Info: NONBONDED TABLE SIZE: 705 POINTS
TCL: Setting parameter alchLambda2 to 0.3
Info: NONBONDED TABLE R-SQUARED SPACING: 0.0625
Info: NONBONDED TABLE SIZE: 705 POINTS
TCL: Running for 1500000 steps
ETITLE: TS BOND ANGLE DIHED IMPRP ELECT VDW BOUNDARY MISC KINETIC TOTAL TEMP POTENTIAL TOTALAVG TEMPAVG PRESSURE GPRESSURE VOLUME PRESSAVG GPRESSAVG
ENERGY: 0 2.2179 7.5895 2.0168 0.0000 -10571.8089 1414.0491 0.0000 0.0000 1751.6225 -7394.3132 302.5421 -9145.9357 -7394.3132 302.5421 -335.5239 -242.4689 29735.9146 -335.5239 -242.4689
ENERGY: 300000 1.9824 3.9317 1.1813 0.0000 -10414.6757 1388.9186 0.0000 0.0000 1684.5873 -7334.0745 290.9637 -9018.6617 -7383.1023 295.3298 -44.3143 50.8477 29971.6454 -310.4568 -234.4843
ENERGY: 600000 3.9928 6.0883 0.9034 0.0000 -10577.7670 1390.6586 0.0000 0.0000 1747.5705 -7428.5535 301.8423 -9176.1240 -7379.9301 298.4013 -745.3798 -714.2708 29936.8229 -305.2264 -244.9781
ENERGY: 900000 4.2698 6.7837 1.2227 0.0000 -10634.2994 1534.5830 0.0000 0.0000 1797.3947 -7290.0455 310.4480 -9087.4402 -7372.5926 299.5004 1057.7134 1107.4344 29776.6267 -125.3229 -72.5103
ENERGY: 1200000 1.2035 3.2111 1.4124 0.0000 -10618.4497 1409.2214 0.0000 0.0000 1749.4873 -7453.9139 302.1734 -9203.4012 -7367.2922 300.3848 -657.4797 -576.5091 30030.9981 -232.9890 -181.2191
ENERGY: 1500000 0.7405 3.8336 1.5149 0.0000 -10398.5191 1325.5648 0.0000 0.0000 1729.6851 -7337.1801 298.7531 -9066.8653 -7359.8528 300.3120 -954.6103 -885.0781 30273.7416 -194.4276 -140.1321
TCL: Running FEP window   7: Lambda1 0.3    Lambda2 0.35   [dLambda 0.04999999999999999]
TCL: Setting parameter firsttimestep to 0
TCL: Setting parameter alchLambda to 0.3
Info: NONBONDED TABLE R-SQUARED SPACING: 0.0625
Info: NONBONDED TABLE SIZE: 705 POINTS
TCL: Setting parameter alchLambda2 to 0.35
Info: NONBONDED TABLE R-SQUARED SPACING: 0.0625
Info: NONBONDED TABLE SIZE: 705 POINTS
TCL: Running for 1500000 steps
ETITLE: TS BOND ANGLE DIHED IMPRP ELECT VDW BOUNDARY MISC KINETIC TOTAL TEMP POTENTIAL TOTALAVG TEMPAVG PRESSURE GPRESSURE VOLUME PRESSAVG GPRESSAVG
ENERGY: 0 0.7405 3.8336 1.5149 0.0000 -10398.5193 1326.0053 0.0000 0.0000 1728.8133 -7337.6117 298.6025 -9066.4250 -7337.6117 298.6025 -956.9546 -882.0565 30273.7416 -956.9546 -882.0565
ENERGY: 300000 1.0458 4.9687 1.1189 0.0000 -10585.9615 1394.5148 0.0000 0.0000 1721.8877 -7462.4255 297.4063 -9184.3132 -7417.9597 296.8026 -352.3932 -322.5580 29513.0461 -422.6859 -364.0305
ENERGY: 600000 1.3381 5.9690 1.6813 0.0000 -10511.1709 1400.1372 0.0000 0.0000 1722.6981 -7379.3473 297.5463 -9102.0454 -7394.6782 297.1798 -282.7117 -203.6032 29868.0667 -501.7337 -425.9229
ENERGY: 900000 1.2087 9.4668 1.4403 0.0000 -10539.4953 1413.0964 0.0000 0.0000 1715.4829 -7398.8002 296.3001 -9114.2832 -7370.9198 297.9890 116.8796 202.8951 29151.1024 -246.4269 -172.0785
ENERGY: 1200000 0.6585 5.4928 0.8967 0.0000 -10553.3757 1395.1704 0.0000 0.0000 1707.0930 -7444.0643 294.8510 -9151.1573 -7364.4622 298.6238 -185.1086 -135.1764 29413.1085 -145.9006 -77.4376
ENERGY: 1500000 1.7150 7.0675 1.1074 0.0000 -10555.4781 1466.0831 0.0000 0.0000 1722.0835 -7357.4216 297.4401 -9079.5051 -7364.3216 298.9424 195.4694 245.3806 29945.8254 -136.3400 -73.6092
TCL: Running FEP window   8: Lambda1 0.35   Lambda2 0.39999999999999997 [dLambda 0.04999999999999999]
TCL: Setting parameter firsttimestep to 0
TCL: Setting parameter alchLambda to 0.35
Info: NONBONDED TABLE R-SQUARED SPACING: 0.0625
Info: NONBONDED TABLE SIZE: 705 POINTS
TCL: Setting parameter alchLambda2 to 0.39999999999999997
Info: NONBONDED TABLE R-SQUARED SPACING: 0.0625
Info: NONBONDED TABLE SIZE: 705 POINTS
TCL: Running for 1500000 steps
ETITLE: TS BOND ANGLE DIHED IMPRP ELECT VDW BOUNDARY MISC KINETIC TOTAL TEMP POTENTIAL TOTALAVG TEMPAVG PRESSURE GPRESSURE VOLUME PRESSAVG GPRESSAVG
ENERGY: 0 1.7151 7.0675 1.1074 0.0000 -10555.4773 1467.2321 0.0000 0.0000 1721.2041 -7357.1511 297.2882 -9078.3552 -7357.1511 297.2882 194.8779 256.0726 29945.8254 194.8779 256.0726
ENERGY: 300000 4.9749 5.7985 1.4765 0.0000 -10498.8471 1370.3809 0.0000 0.0000 1783.0431 -7333.1731 307.9691 -9116.2162 -7359.4431 301.1437 -645.7117 -653.3234 30116.0252 -229.1002 -179.2820
ENERGY: 600000 1.3835 3.7475 1.8031 0.0000 -10336.5726 1310.9573 0.0000 0.0000 1742.3344 -7276.3468 300.9379 -9018.6813 -7347.9097 300.9601 -649.5938 -574.9796 30190.9841 -318.2415 -265.2953
ENERGY: 900000 2.8775 6.4222 1.1870 0.0000 -10579.3754 1425.1821 0.0000 0.0000 1722.1188 -7421.5878 297.4462 -9143.7066 -7335.7828 301.6339 -215.9114 -103.1551 29918.6263 -232.9792 -173.1375
ENERGY: 1200000 0.7905 5.4724 0.7207 0.0000 -10643.2060 1451.0495 0.0000 0.0000 1757.5288 -7427.6441 303.5623 -9185.1729 -7352.3788 301.8247 -126.5664 -120.1772 29991.1160 -181.3541 -130.1976
ENERGY: 1500000 3.7837 4.8544 1.8614 0.0000 -10525.0341 1402.0916 0.0000 0.0000 1763.9409 -7348.5020 304.6698 -9112.4429 -7357.5766 301.8535 -456.6265 -417.0894 30259.4915 -127.1375 -80.9154
TCL: Running FEP window   9: Lambda1 0.39999999999999997 Lambda2 0.44999999999999996 [dLambda 0.04999999999999999]
TCL: Setting parameter firsttimestep to 0
TCL: Setting parameter alchLambda to 0.39999999999999997
Info: NONBONDED TABLE R-SQUARED SPACING: 0.0625
Info: NONBONDED TABLE SIZE: 705 POINTS
TCL: Setting parameter alchLambda2 to 0.44999999999999996
Info: NONBONDED TABLE R-SQUARED SPACING: 0.0625
Info: NONBONDED TABLE SIZE: 705 POINTS
TCL: Running for 1500000 steps
ETITLE: TS BOND ANGLE DIHED IMPRP ELECT VDW BOUNDARY MISC KINETIC TOTAL TEMP POTENTIAL TOTALAVG TEMPAVG PRESSURE GPRESSURE VOLUME PRESSAVG GPRESSAVG
ENERGY: 0 3.7838 4.8544 1.8614 0.0000 -10525.0325 1403.5736 0.0000 0.0000 1763.0595 -7347.8997 304.5176 -9110.9592 -7347.8997 304.5176 -489.2945 -405.3809 30259.4915 -489.2945 -405.3809
ENERGY: 300000 2.2889 5.1995 1.1469 0.0000 -10593.9869 1427.8613 0.0000 0.0000 1780.7690 -7376.7214 307.5764 -9157.4904 -7378.7319 301.4670 -252.3678 -193.1437 30145.8156 -342.6622 -286.1953
ENERGY: 600000 1.1974 5.0643 0.7102 0.0000 -10609.7301 1453.3769 0.0000 0.0000 1740.6021 -7408.7794 300.6387 -9149.3815 -7372.2365 302.5339 277.6260 332.8406 29449.7338 -331.4250 -261.9268
ENERGY: 900000 2.0844 5.6413 0.9735 0.0000 -10296.9184 1330.6135 0.0000 0.0000 1708.1745 -7249.4312 295.0378 -8957.6057 -7345.6031 301.3286 -586.7248 -470.4149 30389.0088 -340.9245 -268.8681
ENERGY: 1200000 3.3277 5.9519 1.0662 0.0000 -10449.8009 1403.4465 0.0000 0.0000 1790.9291 -7245.0795 309.3312 -9036.0086 -7332.9491 301.3274 339.1341 378.1471 29422.3334 -231.2447 -165.3185
ENERGY: 1500000 5.0982 5.4213 1.0488 0.0000 -10486.9272 1423.2703 0.0000 0.0000 1741.8966 -7310.1920 300.8623 -9052.0886 -7338.8198 300.7018 141.4996 283.7732 29773.5801 -248.6943 -176.3351
TCL: Running FEP window  10: Lambda1 0.44999999999999996 Lambda2 0.49999999999999994 [dLambda 0.04999999999999999]
TCL: Setting parameter firsttimestep to 0
TCL: Setting parameter alchLambda to 0.44999999999999996
Info: NONBONDED TABLE R-SQUARED SPACING: 0.0625
Info: NONBONDED TABLE SIZE: 705 POINTS
TCL: Setting parameter alchLambda2 to 0.49999999999999994
Info: NONBONDED TABLE R-SQUARED SPACING: 0.0625
Info: NONBONDED TABLE SIZE: 705 POINTS
TCL: Running for 1500000 steps
ETITLE: TS BOND ANGLE DIHED IMPRP ELECT VDW BOUNDARY MISC KINETIC TOTAL TEMP POTENTIAL TOTALAVG TEMPAVG PRESSURE GPRESSURE VOLUME PRESSAVG GPRESSAVG
ENERGY: 0 5.0982 5.4213 1.0488 0.0000 -10486.9290 1423.3808 0.0000 0.0000 1741.0433 -7310.9366 300.7149 -9051.9799 -7310.9366 300.7149 209.3727 288.1643 29773.5801 209.3727 288.1643
ENERGY: 300000 2.2388 6.2979 1.1900 0.0000 -10356.9418 1332.4606 0.0000 0.0000 1715.2167 -7299.5378 296.2541 -9014.7545 -7324.7716 297.8135 -605.7029 -591.7383 30385.1425 -493.9274 -431.5148
ENERGY: 600000 2.3724 7.2762 3.1331 0.0000 -10341.7822 1314.6915 0.0000 0.0000 1738.1094 -7276.1998 300.2081 -9014.3091 -7329.8353 299.1824 -820.4478 -765.4501 30193.3489 -373.3707 -319.5245
ENERGY: 900000 1.5923 4.1600 0.6952 0.0000 -10410.7106 1328.0434 0.0000 0.0000 1728.9612 -7347.2584 298.6281 -9076.2196 -7332.2498 299.9544 -883.3330 -737.5430 30085.0330 -372.1969 -314.5774
ENERGY: 1200000 1.0259 5.1299 1.1642 0.0000 -10414.2507 1362.4726 0.0000 0.0000 1717.6421 -7326.8161 296.6730 -9044.4581 -7326.6213 300.1439 -369.6093 -313.9795 30184.8287 -379.3880 -324.5605
ENERGY: 1500000 1.7614 5.0180 1.5027 0.0000 -10626.4911 1496.9050 0.0000 0.0000 1713.8430 -7407.4609 296.0168 -9121.3040 -7335.5297 299.9100 407.6022 444.6756 29987.3783 -215.9046 -171.8985
TCL: Running FEP window  11: Lambda1 0.49999999999999994 Lambda2 0.5499999999999999 [dLambda 0.04999999999999999]
TCL: Setting parameter firsttimestep to 0
TCL: Setting parameter alchLambda to 0.49999999999999994
Info: NONBONDED TABLE R-SQUARED SPACING: 0.0625
Info: NONBONDED TABLE SIZE: 705 POINTS
TCL: Setting parameter alchLambda2 to 0.5499999999999999
Info: NONBONDED TABLE R-SQUARED SPACING: 0.0625
Info: NONBONDED TABLE SIZE: 705 POINTS
TCL: Running for 1500000 steps
ETITLE: TS BOND ANGLE DIHED IMPRP ELECT VDW BOUNDARY MISC KINETIC TOTAL TEMP POTENTIAL TOTALAVG TEMPAVG PRESSURE GPRESSURE VOLUME PRESSAVG GPRESSAVG
ENERGY: 0 1.7614 5.0180 1.5027 0.0000 -10626.4916 1496.4954 0.0000 0.0000 1712.9883 -7408.7258 295.8692 -9121.7141 -7408.7258 295.8692 364.0164 447.3085 29987.3783 364.0164 447.3085
ENERGY: 300000 0.2910 5.5309 1.0557 0.0000 -10507.9702 1369.2441 0.0000 0.0000 1725.2549 -7406.5936 297.9879 -9131.8484 -7354.2674 302.7740 -285.7021 -281.9780 29795.8081 -339.4487 -284.3890
ENERGY: 600000 2.5357 5.0439 1.4238 0.0000 -10528.4264 1400.0609 0.0000 0.0000 1690.5989 -7428.7632 292.0021 -9119.3621 -7358.1647 301.1962 -358.2033 -273.8606 29956.1589 -144.7892 -82.8999
ENERGY: 900000 1.4087 5.9865 1.7633 0.0000 -10380.1212 1343.7890 0.0000 0.0000 1704.6178 -7322.5559 294.4234 -9027.1737 -7359.4017 300.2825 -701.2580 -669.3487 30187.6161 -131.0154 -66.8488
ENERGY: 1200000 1.8154 6.1028 0.9070 0.0000 -10468.5661 1354.9290 0.0000 0.0000 1754.1286 -7350.6833 302.9750 -9104.8119 -7363.7961 300.3184 -509.5395 -359.4635 29650.0969 -187.7970 -119.8705
ENERGY: 1500000 5.9860 7.4795 0.7705 0.0000 -10527.7399 1444.5388 0.0000 0.0000 1756.5646 -7312.4005 303.3957 -9068.9651 -7365.6622 300.1277 2.0489 18.0531 30026.0909 -178.4301 -110.4113
TCL: Running FEP window  12: Lambda1 0.5499999999999999 Lambda2 0.6    [dLambda 0.050000000000000044]
TCL: Setting parameter firsttimestep to 0
TCL: Setting parameter alchLambda to 0.5499999999999999
Info: NONBONDED TABLE R-SQUARED SPACING: 0.0625
Info: NONBONDED TABLE SIZE: 705 POINTS
TCL: Setting parameter alchLambda2 to 0.6
Info: NONBONDED TABLE R-SQUARED SPACING: 0.0625
Info: NONBONDED TABLE SIZE: 705 POINTS
TCL: Running for 1500000 steps
ETITLE: TS BOND ANGLE DIHED IMPRP ELECT VDW BOUNDARY MISC KINETIC TOTAL TEMP POTENTIAL TOTALAVG TEMPAVG PRESSURE GPRESSURE VOLUME PRESSAVG GPRESSAVG
ENERGY: 0 5.9860 7.4795 0.7705 0.0000 -10528.0215 1444.2668 0.0000 0.0000 1755.6906 -7313.8281 303.2448 -9069.5186 -7313.8281 303.2448 -68.9711 20.6271 30026.0909 -68.9711 20.6271
ENERGY: 300000 1.5129 8.3756 1.4932 0.0000 -10478.8293 1437.6003 0.0000 0.0000 1719.1031 -7310.7442 296.9254 -9029.8472 -7330.9784 297.5597 68.1579 115.8282 30515.1309 -18.5983 58.4760
ENERGY: 600000 1.1405 5.7158 1.1528 0.0000 -10560.3860 1448.4796 0.0000 0.0000 1743.1315 -7360.7658 301.0756 -9103.8973 -7335.5860 299.4263 490.4949 541.3203 29455.3243 59.2585 127.4328
ENERGY: 900000 2.7437 5.1819 0.8764 0.0000 -10416.1885 1377.9695 0.0000 0.0000 1764.6993 -7264.7176 304.8008 -9029.4169 -7328.8183 300.3538 -14.5253 16.4640 29627.6727 26.3482 93.1193
ENERGY: 1200000 1.0228 2.8643 1.0971 0.0000 -10430.8432 1366.6630 0.0000 0.0000 1738.5825 -7320.6136 300.2899 -9059.1960 -7329.6723 299.9665 -606.7402 -512.5661 30341.5134 106.1683 169.3928
ENERGY: 1500000 1.9717 8.2138 1.4327 0.0000 -10290.9824 1292.9663 0.0000 0.0000 1764.6504 -7221.7475 304.7923 -8986.3979 -7317.2205 300.8700 -692.9346 -634.0322 30146.3561 27.5219 91.3264
TCL: Running FEP window  13: Lambda1 0.6    Lambda2 0.65   [dLambda 0.050000000000000044]
TCL: Setting parameter firsttimestep to 0
TCL: Setting parameter alchLambda to 0.6
Info: NONBONDED TABLE R-SQUARED SPACING: 0.0625
Info: NONBONDED TABLE SIZE: 705 POINTS
TCL: Setting parameter alchLambda2 to 0.65
Info: NONBONDED TABLE R-SQUARED SPACING: 0.0625
Info: NONBONDED TABLE SIZE: 705 POINTS
TCL: Running for 1500000 steps
ETITLE: TS BOND ANGLE DIHED IMPRP ELECT VDW BOUNDARY MISC KINETIC TOTAL TEMP POTENTIAL TOTALAVG TEMPAVG PRESSURE GPRESSURE VOLUME PRESSAVG GPRESSAVG
ENERGY: 0 1.9717 8.2138 1.4327 0.0000 -10292.7452 1293.4360 0.0000 0.0000 1763.8057 -7223.8853 304.6464 -8987.6910 -7223.8853 304.6464 -712.2806 -628.2791 30146.3561 -712.2806 -628.2791
ENERGY: 300000 2.7288 8.6314 0.8596 0.0000 -10492.1691 1377.3714 0.0000 0.0000 1794.8037 -7307.7741 310.0004 -9102.5778 -7318.6301 302.8906 -320.3285 -286.9056 30030.9772 -123.5413 -74.5067
ENERGY: 600000 3.5034 6.8671 1.8128 0.0000 -10512.7325 1378.2531 0.0000 0.0000 1777.5314 -7344.7647 307.0172 -9122.2960 -7331.8179 301.5520 -334.9394 -287.6610 29843.8359 -267.6940 -218.6283
ENERGY: 900000 1.9983 4.6721 0.9593 0.0000 -10506.1121 1405.1656 0.0000 0.0000 1736.3912 -7356.9256 299.9114 -9093.3169 -7338.3064 302.0430 -297.2196 -216.5657 30344.9983 -242.2895 -188.6135
ENERGY: 1200000 2.5016 3.6455 0.9409 0.0000 -10594.7603 1433.3170 0.0000 0.0000 1777.4898 -7376.8655 307.0100 -9154.3552 -7349.0586 300.3715 -1.0092 86.3840 29888.9541 -147.1277 -92.7669
ENERGY: 1500000 0.5646 3.7196 0.9870 0.0000 -10490.6825 1407.8937 0.0000 0.0000 1738.1909 -7339.3267 300.2222 -9077.5176 -7348.3151 301.0037 -9.2237 46.8010 29871.8403 -186.3691 -127.3355
TCL: Running FEP window  14: Lambda1 0.65   Lambda2 0.7000000000000001 [dLambda 0.050000000000000044]
TCL: Setting parameter firsttimestep to 0
TCL: Setting parameter alchLambda to 0.65
Info: NONBONDED TABLE R-SQUARED SPACING: 0.0625
Info: NONBONDED TABLE SIZE: 705 POINTS
TCL: Setting parameter alchLambda2 to 0.7000000000000001
Info: NONBONDED TABLE R-SQUARED SPACING: 0.0625
Info: NONBONDED TABLE SIZE: 705 POINTS
TCL: Running for 1500000 steps
ETITLE: TS BOND ANGLE DIHED IMPRP ELECT VDW BOUNDARY MISC KINETIC TOTAL TEMP POTENTIAL TOTALAVG TEMPAVG PRESSURE GPRESSURE VOLUME PRESSAVG GPRESSAVG
ENERGY: 0 0.5646 3.7196 0.9870 0.0000 -10491.3194 1408.4579 0.0000 0.0000 1737.3708 -7340.2194 300.0806 -9077.5903 -7340.2194 300.0806 -27.4001 57.5523 29871.8403 -27.4001 57.5523
ENERGY: 300000 0.3712 2.2461 1.2047 0.0000 -10469.3823 1359.0394 0.0000 0.0000 1765.9288 -7340.5920 305.0131 -9106.5208 -7345.4091 300.3378 -280.0724 -242.3142 29811.4837 -444.8304 -383.7188
ENERGY: 600000 2.0978 7.5900 1.0662 0.0000 -10477.0543 1412.4885 0.0000 0.0000 1773.4696 -7280.3421 306.3156 -9053.8117 -7331.4275 302.2932 76.6256 113.7644 29919.8889 -264.9080 -210.2544
ENERGY: 900000 1.2880 4.4848 1.3256 0.0000 -10530.2053 1398.7236 0.0000 0.0000 1736.6361 -7387.7472 299.9537 -9124.3833 -7343.2965 301.0123 -133.2732 -68.3498 29762.2866 -226.6463 -168.5086
ENERGY: 1200000 0.6241 7.5514 1.3672 0.0000 -10536.8078 1392.8906 0.0000 0.0000 1727.7631 -7406.6113 298.4211 -9134.3744 -7345.5541 300.7030 -355.4758 -205.4095 29754.8874 -270.6107 -195.2103
ENERGY: 1500000 1.3268 2.9020 1.2697 0.0000 -10493.3824 1420.2007 0.0000 0.0000 1743.9457 -7323.7375 301.2162 -9067.6832 -7336.1967 300.9364 147.1499 247.7242 29862.8838 -239.1201 -166.3237
TCL: Running FEP window  15: Lambda1 0.7000000000000001 Lambda2 0.7500000000000001 [dLambda 0.050000000000000044]
TCL: Setting parameter firsttimestep to 0
TCL: Setting parameter alchLambda to 0.7000000000000001
Info: NONBONDED TABLE R-SQUARED SPACING: 0.0625
Info: NONBONDED TABLE SIZE: 705 POINTS
TCL: Setting parameter alchLambda2 to 0.7500000000000001
Info: NONBONDED TABLE R-SQUARED SPACING: 0.0625
Info: NONBONDED TABLE SIZE: 705 POINTS
TCL: Running for 1500000 steps
ETITLE: TS BOND ANGLE DIHED IMPRP ELECT VDW BOUNDARY MISC KINETIC TOTAL TEMP POTENTIAL TOTALAVG TEMPAVG PRESSURE GPRESSURE VOLUME PRESSAVG GPRESSAVG
ENERGY: 0 1.3268 2.9020 1.2697 0.0000 -10496.0501 1421.6475 0.0000 0.0000 1743.0679 -7325.8362 301.0646 -9068.9041 -7325.8362 301.0646 170.3357 262.4694 29862.8838 170.3357 262.4694
ENERGY: 300000 2.7509 3.7235 1.1155 0.0000 -10504.2679 1404.0129 0.0000 0.0000 1747.8414 -7344.8237 301.8891 -9092.6651 -7337.1744 302.4578 -200.8885 -135.3038 30155.3451 -82.9512 7.7508
ENERGY: 600000 1.7238 5.3837 1.1706 0.0000 -10486.4581 1406.4653 0.0000 0.0000 1762.0908 -7309.6238 304.3502 -9071.7146 -7353.5181 303.1762 -59.7998 16.1584 30124.9058 -228.4425 -143.1208
ENERGY: 900000 1.8337 3.0983 1.0958 0.0000 -10495.3053 1384.1800 0.0000 0.0000 1750.3416 -7354.7560 302.3209 -9105.0976 -7351.6966 302.4054 -227.1203 -212.1379 29590.0823 -176.0208 -99.5865
ENERGY: 1200000 0.3173 4.9586 1.1071 0.0000 -10571.5478 1423.5477 0.0000 0.0000 1728.4582 -7413.1589 298.5412 -9141.6171 -7370.9950 300.2976 -17.4164 102.1059 29600.7606 -121.6494 -50.0177
ENERGY: 1500000 1.2372 2.8292 0.8292 0.0000 -10430.2126 1404.5477 0.0000 0.0000 1759.9720 -7260.7974 303.9843 -9020.7695 -7364.9867 300.6274 95.9572 152.8088 29964.2571 -144.1255 -82.8717
TCL: Running FEP window  16: Lambda1 0.7500000000000001 Lambda2 0.8000000000000002 [dLambda 0.050000000000000044]
TCL: Setting parameter firsttimestep to 0
TCL: Setting parameter alchLambda to 0.7500000000000001
Info: NONBONDED TABLE R-SQUARED SPACING: 0.0625
Info: NONBONDED TABLE SIZE: 705 POINTS
TCL: Setting parameter alchLambda2 to 0.8000000000000002
Info: NONBONDED TABLE R-SQUARED SPACING: 0.0625
Info: NONBONDED TABLE SIZE: 705 POINTS
TCL: Running for 1500000 steps
ETITLE: TS BOND ANGLE DIHED IMPRP ELECT VDW BOUNDARY MISC KINETIC TOTAL TEMP POTENTIAL TOTALAVG TEMPAVG PRESSURE GPRESSURE VOLUME PRESSAVG GPRESSAVG
ENERGY: 0 1.2372 2.8292 0.8292 0.0000 -10430.8174 1404.9739 0.0000 0.0000 1759.1133 -7261.8347 303.8360 -9020.9480 -7261.8347 303.8360 71.8062 161.6113 29964.2571 71.8062 161.6113
ENERGY: 300000 0.7377 3.2681 0.8056 0.0000 -10492.6735 1339.2405 0.0000 0.0000 1719.4535 -7429.1680 296.9859 -9148.6216 -7372.5453 298.2858 -693.2564 -657.1495 29934.8995 -160.9677 -96.5063
ENERGY: 600000 1.7760 7.3264 1.5526 0.0000 -10496.9101 1360.3618 0.0000 0.0000 1766.8186 -7359.0748 305.1668 -9125.8934 -7369.1428 299.0563 -422.7157 -290.6082 29392.5950 -128.8440 -42.3557
ENERGY: 900000 3.5417 1.8925 2.2543 0.0000 -10382.9941 1279.6165 0.0000 0.0000 1673.8929 -7421.7962 289.1166 -9095.6891 -7370.1810 298.7599 -1102.6323 -1002.5611 29923.3028 -26.2829 52.4877
ENERGY: 1200000 0.5870 4.9579 0.6582 0.0000 -10395.6653 1340.5907 0.0000 0.0000 1726.7996 -7322.0718 298.2547 -9048.8714 -7376.9624 297.6213 -729.2177 -695.8435 30368.8559 -110.6680 -44.4864
ENERGY: 1500000 1.1157 6.0774 1.0224 0.0000 -10582.0715 1449.9905 0.0000 0.0000 1746.7795 -7377.0861 301.7057 -9123.8656 -7370.7910 299.1577 384.6087 476.7603 29384.0028 -31.2453 36.9981
TCL: Running FEP window  17: Lambda1 0.8000000000000002 Lambda2 0.8500000000000002 [dLambda 0.050000000000000044]
TCL: Setting parameter firsttimestep to 0
TCL: Setting parameter alchLambda to 0.8000000000000002
Info: NONBONDED TABLE R-SQUARED SPACING: 0.0625
Info: NONBONDED TABLE SIZE: 705 POINTS
TCL: Setting parameter alchLambda2 to 0.8500000000000002
Info: NONBONDED TABLE R-SQUARED SPACING: 0.0625
Info: NONBONDED TABLE SIZE: 705 POINTS
TCL: Running for 1500000 steps
ETITLE: TS BOND ANGLE DIHED IMPRP ELECT VDW BOUNDARY MISC KINETIC TOTAL TEMP POTENTIAL TOTALAVG TEMPAVG PRESSURE GPRESSURE VOLUME PRESSAVG GPRESSAVG
ENERGY: 0 1.1157 6.0774 1.0224 0.0000 -10583.5439 1450.5579 0.0000 0.0000 1745.9612 -7378.8094 301.5643 -9124.7706 -7378.8094 301.5643 395.5820 485.8864 29384.0028 395.5820 485.8864
ENERGY: 300000 2.8165 4.6278 1.1178 0.0000 -10423.2379 1402.8525 0.0000 0.0000 1729.3317 -7282.4916 298.6921 -9011.8234 -7342.8997 299.5350 -206.6035 -93.6136 30584.6021 -108.9306 -29.9451
ENERGY: 600000 4.8361 4.7370 0.8428 0.0000 -10531.0688 1370.8671 0.0000 0.0000 1684.8892 -7464.8965 291.0159 -9149.7857 -7359.7207 297.6030 -765.0930 -744.2859 30355.2049 -15.7426 34.7907
ENERGY: 900000 2.5212 5.7736 1.4485 0.0000 -10585.6139 1432.6155 0.0000 0.0000 1782.5328 -7360.7223 307.8810 -9143.2551 -7359.7952 299.2466 -62.9339 43.2856 29997.7686 130.8649 190.0096
ENERGY: 1200000 2.6374 4.6816 0.9944 0.0000 -10559.7682 1479.7983 0.0000 0.0000 1696.3195 -7375.3370 292.9901 -9071.6565 -7355.8635 299.5424 782.1088 795.4889 29390.7199 162.5295 219.0899
ENERGY: 1500000 2.5623 6.3490 1.4296 0.0000 -10511.9134 1300.9769 0.0000 0.0000 1686.6922 -7513.9035 291.3273 -9200.5957 -7366.9460 299.2826 -1330.9360 -1297.8605 29988.2799 73.0640 126.2348
TCL: Running FEP window  18: Lambda1 0.8500000000000002 Lambda2 0.9000000000000002 [dLambda 0.050000000000000044]
TCL: Setting parameter firsttimestep to 0
TCL: Setting parameter alchLambda to 0.8500000000000002
Info: NONBONDED TABLE R-SQUARED SPACING: 0.0625
Info: NONBONDED TABLE SIZE: 705 POINTS
TCL: Setting parameter alchLambda2 to 0.9000000000000002
Info: NONBONDED TABLE R-SQUARED SPACING: 0.0625
Info: NONBONDED TABLE SIZE: 705 POINTS
TCL: Running for 1500000 steps
ETITLE: TS BOND ANGLE DIHED IMPRP ELECT VDW BOUNDARY MISC KINETIC TOTAL TEMP POTENTIAL TOTALAVG TEMPAVG PRESSURE GPRESSURE VOLUME PRESSAVG GPRESSAVG
ENERGY: 0 2.5623 6.3490 1.4296 0.0000 -10514.0209 1302.4850 0.0000 0.0000 1685.8316 -7515.3635 291.1787 -9201.1950 -7515.3635 291.1787 -1351.4832 -1279.8286 29988.2799 -1351.4832 -1279.8286
ENERGY: 300000 1.7617 7.0135 1.2857 0.0000 -10480.7528 1376.2136 0.0000 0.0000 1729.8367 -7364.6415 298.7793 -9094.4783 -7390.7821 298.7734 -434.6004 -321.0403 30240.2727 -559.8447 -488.2198
ENERGY: 600000 3.3494 5.3514 1.9238 0.0000 -10597.4547 1490.7732 0.0000 0.0000 1764.5065 -7331.5504 304.7675 -9096.0569 -7374.7894 298.8904 604.1872 672.5812 29604.7468 93.1990 158.3934
ENERGY: 900000 2.9625 1.9279 1.4671 0.0000 -10542.1998 1475.6689 0.0000 0.0000 1764.1163 -7296.0570 304.7001 -9060.1733 -7376.2868 299.7870 519.4802 666.3634 29747.5978 50.6925 125.0953
ENERGY: 1200000 1.4356 6.3051 1.6690 0.0000 -10498.7860 1378.3817 0.0000 0.0000 1738.0737 -7372.9209 300.2020 -9110.9946 -7379.3851 299.2948 -336.0652 -281.1572 30075.6019 -12.4807 63.4084
ENERGY: 1500000 4.2352 5.4155 1.0089 0.0000 -10552.0839 1477.6308 0.0000 0.0000 1735.0597 -7328.7338 299.6814 -9063.7935 -7373.2173 299.6943 650.2135 725.0073 29758.1282 78.3174 151.4146
TCL: Running FEP window  19: Lambda1 0.9000000000000002 Lambda2 0.9500000000000003 [dLambda 0.050000000000000044]
TCL: Setting parameter firsttimestep to 0
TCL: Setting parameter alchLambda to 0.9000000000000002
Info: NONBONDED TABLE R-SQUARED SPACING: 0.0625
Info: NONBONDED TABLE SIZE: 705 POINTS
TCL: Setting parameter alchLambda2 to 0.9500000000000003
Info: NONBONDED TABLE R-SQUARED SPACING: 0.0625
Info: NONBONDED TABLE SIZE: 705 POINTS
TCL: Running for 1500000 steps
ETITLE: TS BOND ANGLE DIHED IMPRP ELECT VDW BOUNDARY MISC KINETIC TOTAL TEMP POTENTIAL TOTALAVG TEMPAVG PRESSURE GPRESSURE VOLUME PRESSAVG GPRESSAVG
ENERGY: 0 4.2352 5.4155 1.0089 0.0000 -10554.0806 1479.4498 0.0000 0.0000 1734.2179 -7329.7533 299.5360 -9063.9713 -7329.7533 299.5360 670.6090 747.4609 29758.1282 670.6090 747.4609
ENERGY: 300000 2.5139 6.1735 1.2103 0.0000 -10544.2956 1426.6285 0.0000 0.0000 1734.9316 -7372.8378 299.6593 -9107.7695 -7329.0372 304.5008 -72.6559 -14.6965 29672.7982 160.7239 242.4121
ENERGY: 600000 3.2163 5.4276 0.8058 0.0000 -10531.6753 1368.5696 0.0000 0.0000 1710.0059 -7443.6501 295.3541 -9153.6560 -7356.1304 301.9222 -572.3180 -392.8285 29919.4851 140.8919 225.3832
ENERGY: 900000 2.6421 5.7605 1.1368 0.0000 -10524.6492 1409.9140 0.0000 0.0000 1732.1558 -7373.0400 299.1798 -9105.1958 -7341.8196 302.1783 -351.3787 -325.1492 30369.5279 129.4339 202.0124
ENERGY: 1200000 2.5829 7.1546 0.8412 0.0000 -10523.5965 1372.5747 0.0000 0.0000 1752.5419 -7387.9012 302.7009 -9140.4431 -7344.0750 302.1319 -481.6703 -384.9676 29867.4017 80.5913 146.2193
ENERGY: 1500000 1.4713 4.7908 1.1272 0.0000 -10560.0584 1424.9390 0.0000 0.0000 1694.5837 -7433.1462 292.6903 -9127.7300 -7354.7328 301.7159 -176.3935 -130.1448 30204.9237 4.9276 68.4588
TCL: Running FEP window  20: Lambda1 0.9500000000000003 Lambda2 1.0    [dLambda 0.04999999999999971]
TCL: Setting parameter firsttimestep to 0
TCL: Setting parameter alchLambda to 0.9500000000000003
Info: NONBONDED TABLE R-SQUARED SPACING: 0.0625
Info: NONBONDED TABLE SIZE: 705 POINTS
TCL: Setting parameter alchLambda2 to 1.0
Info: NONBONDED TABLE R-SQUARED SPACING: 0.0625
Info: NONBONDED TABLE SIZE: 705 POINTS
TCL: Running for 1500000 steps
ETITLE: TS BOND ANGLE DIHED IMPRP ELECT VDW BOUNDARY MISC KINETIC TOTAL TEMP POTENTIAL TOTALAVG TEMPAVG PRESSURE GPRESSURE VOLUME PRESSAVG GPRESSAVG
ENERGY: 0 1.4713 4.7908 1.1272 0.0000 -10562.3258 1426.3910 0.0000 0.0000 1693.7590 -7434.7864 292.5479 -9128.5454 -7434.7864 292.5479 -204.9146 -113.3019 30204.9237 -204.9146 -113.3019
ENERGY: 300000 2.1829 4.7120 1.1939 0.0000 -10585.4875 1461.4421 0.0000 0.0000 1778.9997 -7336.9568 307.2708 -9115.9566 -7382.1182 302.0264 522.8696 563.2312 29662.9600 194.8696 261.3958
ENERGY: 600000 3.7664 5.3903 1.4480 0.0000 -10462.1913 1381.3431 0.0000 0.0000 1744.0059 -7326.2376 301.2266 -9070.2435 -7358.5097 302.6725 -262.0857 -203.8546 30107.3587 -184.8001 -115.6369
ENERGY: 900000 2.8767 4.7069 1.1856 0.0000 -10439.0973 1366.3546 0.0000 0.0000 1731.8273 -7332.1463 299.1231 -9063.9736 -7345.2930 302.7389 -399.5893 -292.4273 29959.7019 -193.7752 -116.1791
ENERGY: 1200000 2.5547 8.3341 1.3177 0.0000 -10592.9113 1469.6631 0.0000 0.0000 1698.3303 -7412.7115 293.3375 -9111.0417 -7359.7108 300.0063 451.0427 490.2608 29792.5482 -208.8718 -133.3009
ENERGY: 1500000 2.5325 5.8354 0.7945 0.0000 -10454.2062 1334.6209 0.0000 0.0000 1729.5499 -7380.8731 298.7297 -9110.4230 -7362.5664 298.7456 -628.1152 -523.8260 29832.8299 -159.4012 -88.7488
TCL: Exiting due to exit command.
