Info: SIMULATION PARAMETERS:
Info: TIMESTEP               2
Info: NUMBER OF STEPS        0
Info: STEPS PER CYCLE        10
Info: PERIODIC CELL BASIS 1  35.01 0 0
Info: PERIODIC CELL BASIS 2  0 35.411 0
Info: PERIODIC CELL BASIS 3  0 0 35.723
Info: PERIODIC CELL CENTER   0 0 0
Info: WRAPPING WATERS AROUND PERIODIC BOUNDARIES ON OUTPUT.
Info: WRAPPING ALL CLUSTERS AROUND PERIODIC BOUNDARIES ON OUTPUT.
Info: FIRST LDB TIMESTEP     50
Info: LAST LDB TIMESTEP     -1
Info: HOM BACKGROUND SCALING 1
Info: PME BACKGROUND SCALING 1
Info: MIN ATOMS PER PATCH    40
Info: EMPTY PATCH LOAD       40 ATOMS
Info: INITIAL TEMPERATURE    300
Info: CENTER OF MASS MOVING INITIALLY? NO
Info: DIELECTRIC             1
Info: EXCLUDE                SCALED ONE-FOUR
Info: 1-4 ELECTROSTATICS SCALED BY 0.833333
Info: MODIFIED 1-4 VDW PARAMETERS WILL BE USED
Info: DCD FILENAME           mobley_1723043_equil.dcd
Info: DCD FREQUENCY          100000
Info: DCD FIRST STEP         100000
Info: DCD FILE WILL CONTAIN UNIT CELL DATA
Info: XST FILENAME           mobley_1723043_equil.xst
Info: XST FREQUENCY          100000
Info: NO VELOCITY DCD OUTPUT
Info: NO FORCE DCD OUTPUT
Info: OUTPUT FILENAME        mobley_1723043_equil
Info: BINARY OUTPUT FILES WILL BE USED
Info: RESTART FILENAME       mobley_1723043_equil.restart
Info: RESTART FREQUENCY      100000
Info: BINARY RESTART FILES WILL BE USED
Info: CUTOFF                 9
Info: PAIRLIST DISTANCE      11
Info: PAIRLIST SHRINK RATE   0.01
Info: PAIRLIST GROW RATE     0.01
Info: PAIRLIST TRIGGER       0.3
Info: PAIRLISTS PER CYCLE    2
Info: PAIRLISTS ENABLED
Info: MARGIN                 8
Info: HYDROGEN GROUP CUTOFF  2.5
Info: PATCH DIMENSION        21.5
Info: ENERGY OUTPUT STEPS    100000
Info: ENERGY EVALUATION STEPS    100000
Info: OUTPUT ENERGY PRECISION 4
Info: CROSSTERM ENERGY INCLUDED IN DIHEDRAL
Info: TIMING OUTPUT STEPS    1000000
Info: PRESSURE OUTPUT STEPS  100000
Info: FIXED ATOMS ACTIVE
Info: LANGEVIN DYNAMICS ACTIVE
Info: LANGEVIN TEMPERATURE   30
Info: LANGEVIN USING BBK INTEGRATOR
Info: LANGEVIN DAMPING COEFFICIENT IS 1 INVERSE PS
Info: LANGEVIN DYNAMICS APPLIED TO HYDROGENS
Info: LANGEVIN PISTON PRESSURE CONTROL ACTIVE
Info:        TARGET PRESSURE IS 1.01325 BAR
Info:     OSCILLATION PERIOD IS 50 FS
Info:             DECAY TIME IS 25 FS
Info:     PISTON TEMPERATURE IS 300 K
Info:       PRESSURE CONTROL IS GROUP-BASED
Info:    INITIAL STRAIN RATE IS 0 0 0
Info:       CELL FLUCTUATION IS ISOTROPIC
Info: PARTICLE MESH EWALD (PME) ACTIVE
Info: PME TOLERANCE               1e-06
Info: PME EWALD COEFFICIENT       0.348832
Info: PME INTERPOLATION ORDER     4
Info: PME GRID DIMENSIONS         36 36 36
Info: PME MAXIMUM GRID SPACING    1
Info: FULL ELECTROSTATIC EVALUATION FREQUENCY      2
Info: USING VERLET I (r-RESPA) MTS SCHEME.
Info: C1 SPLITTING OF LONG RANGE ELECTROSTATICS
Info: PLACING ATOMS IN PATCHES BY HYDROGEN GROUPS
Info: RIGID BONDS TO HYDROGEN : ALL
Info:         ERROR TOLERANCE : 1e-08
Info:          MAX ITERATIONS : 100
Info: RIGID WATER USING SETTLE ALGORITHM
Info: RANDOM NUMBER SEED     1742720380
Info: USE HYDROGEN BONDS?    NO
Info: Using AMBER format force field!
Info: AMBER PARM FILE        mobley_1723043.prmtop
Info: COORDINATE PDB         mobley_1723043.pdb
Info: Exclusions will be read from PARM file!
Info: SCNB (VDW SCALING)     2
Info: USING ARITHMETIC MEAN TO COMBINE L-J SIGMA PARAMETERS
Info: BINARY COORDINATES     mobley_1723043_min.coor
Info: SUMMARY OF PARAMETERS:
Info: 4 BONDS
Info: 3 ANGLES
Info:   3 HARMONIC
Info:   0 COSINE-BASED
Info: 1 DIHEDRAL
Info: 0 IMPROPER
Info: 0 CROSSTERM
Info: 0 VDW
Info: 10 VDW_PAIRS
Info: 0 NBTHOLE_PAIRS
Info: STRUCTURE SUMMARY:
Info: 2964 ATOMS
Info: 2964 BONDS
Info: 24 ANGLES
Info: 36 DIHEDRALS
Info: 0 IMPROPERS
Info: 0 CROSSTERMS
Info: 3010 EXCLUSIONS
Info: 12 FIXED ATOMS
Info: 2952 RIGID BONDS
Info: 0 RIGID BONDS BETWEEN FIXED ATOMS
Info: 5904 DEGREES OF FREEDOM
Info: 996 HYDROGEN GROUPS
Info: 3 ATOMS IN LARGEST HYDROGEN GROUP
Info: 996 MIGRATION GROUPS
Info: 3 ATOMS IN LARGEST MIGRATION GROUP
Info: 12 HYDROGEN GROUPS WITH ALL ATOMS FIXED
Info: TOTAL MASS = 17927.8 amu
Info: TOTAL CHARGE = 0 e
Info: MASS DENSITY = 0.672214 g/cm^3
Info: ATOM DENSITY = 0.0669268 atoms/A^3
Info: ADDED 0 IMPLICIT EXCLUSIONS
Info: NONBONDED TABLE R-SQUARED SPACING: 0.0625
Info: NONBONDED TABLE SIZE: 705 POINTS
Info: REMOVING COM VELOCITY -0.0637038 -0.0946227 0.0840532
TCL: Running for 100000 steps
ETITLE: TS BOND ANGLE DIHED IMPRP ELECT VDW BOUNDARY MISC KINETIC TOTAL TEMP POTENTIAL TOTAL3 TEMPAVG PRESSURE GPRESSURE VOLUME PRESSAVG GPRESSAVG
ENERGY: 0 0.0000 0.0000 0.0000 0.0000 -13784.9059 2427.9880 0.0000 0.0000 1730.9726 -9625.9453 295.0762 -11356.9179 -9625.6195 295.0762 475.2979 509.9259 44287.2002 475.2979 509.9259
ENERGY: 100000 0.0000 0.0000 0.0000 0.0000 -14376.8739 2495.6249 0.0000 0.0000 173.9933 -11707.2556 29.6604 -11881.2489 -11706.8400 30.8861 199.9435 251.2444 28393.4677 5.7945 5.7776
TCL: Running 100000 steps at 60 kelvin.
TCL: Setting parameter langevinTemp to 60
TCL: Running for 100000 steps
ETITLE: TS BOND ANGLE DIHED IMPRP ELECT VDW BOUNDARY MISC KINETIC TOTAL TEMP POTENTIAL TOTAL3 TEMPAVG PRESSURE GPRESSURE VOLUME PRESSAVG GPRESSAVG
ENERGY: 100000 0.0000 0.0000 0.0000 0.0000 -14376.8739 2495.6249 0.0000 0.0000 173.9066 -11707.3423 29.6456 -11881.2489 -11707.0294 29.6456 198.3648 251.3437 28393.4677 198.3648 251.3437
ENERGY: 200000 0.0000 0.0000 0.0000 0.0000 -14223.5563 2422.0990 0.0000 0.0000 354.3522 -11447.1051 60.4059 -11801.4573 -11446.2735 60.0518 -102.4398 2.2228 28444.4251 4.4806 4.4795
TCL: Running 100000 steps at 90 kelvin.
TCL: Setting parameter langevinTemp to 90
TCL: Running for 100000 steps
ETITLE: TS BOND ANGLE DIHED IMPRP ELECT VDW BOUNDARY MISC KINETIC TOTAL TEMP POTENTIAL TOTAL3 TEMPAVG PRESSURE GPRESSURE VOLUME PRESSAVG GPRESSAVG
ENERGY: 200000 0.0000 0.0000 0.0000 0.0000 -14223.5563 2422.0990 0.0000 0.0000 354.1798 -11447.2775 60.3765 -11801.4573 -11446.4862 60.3765 -63.8257 1.9719 28444.4251 -63.8257 1.9719
ENERGY: 300000 0.0000 0.0000 0.0000 0.0000 -14076.0483 2390.7316 0.0000 0.0000 544.5426 -11140.7740 92.8273 -11685.3167 -11139.8306 90.0326 -46.1799 3.2151 28774.5421 3.8150 3.8269
TCL: Running 100000 steps at 120 kelvin.
TCL: Setting parameter langevinTemp to 120
TCL: Running for 100000 steps
ETITLE: TS BOND ANGLE DIHED IMPRP ELECT VDW BOUNDARY MISC KINETIC TOTAL TEMP POTENTIAL TOTAL3 TEMPAVG PRESSURE GPRESSURE VOLUME PRESSAVG GPRESSAVG
ENERGY: 300000 0.0000 0.0000 0.0000 0.0000 -14076.0483 2390.7316 0.0000 0.0000 544.2850 -11141.0316 92.7834 -11685.3167 -11140.1093 92.7834 -57.7132 2.9681 28774.5421 -57.7132 2.9681
ENERGY: 400000 0.0000 0.0000 0.0000 0.0000 -13888.3584 2333.5096 0.0000 0.0000 714.1946 -10840.6542 121.7477 -11554.8488 -10838.6989 119.8617 28.8768 72.7188 28655.5122 3.3167 3.2045
TCL: Running 100000 steps at 150 kelvin.
TCL: Setting parameter langevinTemp to 150
TCL: Running for 100000 steps
ETITLE: TS BOND ANGLE DIHED IMPRP ELECT VDW BOUNDARY MISC KINETIC TOTAL TEMP POTENTIAL TOTAL3 TEMPAVG PRESSURE GPRESSURE VOLUME PRESSAVG GPRESSAVG
ENERGY: 400000 0.0000 0.0000 0.0000 0.0000 -13888.3584 2333.5096 0.0000 0.0000 713.8297 -10841.0191 121.6854 -11554.8488 -10839.4597 121.6854 12.4259 73.4113 28655.5122 12.4259 73.4113
ENERGY: 500000 0.0000 0.0000 0.0000 0.0000 -13579.7076 2199.1296 0.0000 0.0000 908.1846 -10472.3933 154.8168 -11380.5779 -10470.7059 149.7989 -526.5512 -466.7542 28884.1379 4.2784 4.2771
TCL: Running 100000 steps at 180 kelvin.
TCL: Setting parameter langevinTemp to 180
TCL: Running for 100000 steps
ETITLE: TS BOND ANGLE DIHED IMPRP ELECT VDW BOUNDARY MISC KINETIC TOTAL TEMP POTENTIAL TOTAL3 TEMPAVG PRESSURE GPRESSURE VOLUME PRESSAVG GPRESSAVG
ENERGY: 500000 0.0000 0.0000 0.0000 0.0000 -13579.7076 2199.1296 0.0000 0.0000 907.7587 -10472.8193 154.7442 -11380.5779 -10471.2212 154.7442 -524.4415 -466.9194 28884.1379 -524.4415 -466.9194
ENERGY: 600000 0.0000 0.0000 0.0000 0.0000 -13001.5128 1953.3558 0.0000 0.0000 1078.2348 -9969.9222 183.8050 -11048.1570 -9968.2032 180.4470 -1374.9047 -1337.6900 29279.1237 4.7363 4.7073
TCL: Running 100000 steps at 210 kelvin.
TCL: Setting parameter langevinTemp to 210
TCL: Running for 100000 steps
ETITLE: TS BOND ANGLE DIHED IMPRP ELECT VDW BOUNDARY MISC KINETIC TOTAL TEMP POTENTIAL TOTAL3 TEMPAVG PRESSURE GPRESSURE VOLUME PRESSAVG GPRESSAVG
ENERGY: 600000 0.0000 0.0000 0.0000 0.0000 -13001.5128 1953.3558 0.0000 0.0000 1077.6957 -9970.4613 183.7131 -11048.1570 -9968.0758 183.7131 -1403.8053 -1337.8890 29279.1237 -1403.8053 -1337.8890
ENERGY: 700000 0.0000 0.0000 0.0000 0.0000 -12466.8150 1882.6169 0.0000 0.0000 1220.0923 -9364.1059 207.9872 -10584.1981 -9361.7380 210.4995 15.2600 47.5601 28876.0886 3.1824 3.0958
TCL: Running 100000 steps at 240 kelvin.
TCL: Setting parameter langevinTemp to 240
TCL: Running for 100000 steps
ETITLE: TS BOND ANGLE DIHED IMPRP ELECT VDW BOUNDARY MISC KINETIC TOTAL TEMP POTENTIAL TOTAL3 TEMPAVG PRESSURE GPRESSURE VOLUME PRESSAVG GPRESSAVG
ENERGY: 700000 0.0000 0.0000 0.0000 0.0000 -12466.8150 1882.6169 0.0000 0.0000 1219.4890 -9364.7091 207.8844 -10584.1981 -9363.4332 207.8844 -48.1024 46.8639 28876.0886 -48.1024 46.8639
ENERGY: 800000 0.0000 0.0000 0.0000 0.0000 -11915.2709 1696.6036 0.0000 0.0000 1441.6919 -8776.9754 245.7630 -10218.6673 -8772.2267 239.5820 -436.2122 -363.4133 29232.2945 4.2409 4.1487
TCL: Running 100000 steps at 270 kelvin.
TCL: Setting parameter langevinTemp to 270
TCL: Running for 100000 steps
ETITLE: TS BOND ANGLE DIHED IMPRP ELECT VDW BOUNDARY MISC KINETIC TOTAL TEMP POTENTIAL TOTAL3 TEMPAVG PRESSURE GPRESSURE VOLUME PRESSAVG GPRESSAVG
ENERGY: 800000 0.0000 0.0000 0.0000 0.0000 -11915.2709 1696.6036 0.0000 0.0000 1440.9925 -8777.6748 245.6438 -10218.6673 -8775.1456 245.6438 -445.0900 -361.8853 29232.2945 -445.0900 -361.8853
ENERGY: 900000 0.0000 0.0000 0.0000 0.0000 -11149.1054 1447.6403 0.0000 0.0000 1564.2211 -8137.2440 266.6504 -9701.4651 -8132.9582 270.0479 -802.7205 -701.1355 29715.0782 2.2188 2.6031
TCL: Running 1000000 steps at 300 kelvin.
TCL: Setting parameter langevinTemp to 300
TCL: Running for 1000000 steps
ETITLE: TS BOND ANGLE DIHED IMPRP ELECT VDW BOUNDARY MISC KINETIC TOTAL TEMP POTENTIAL TOTAL3 TEMPAVG PRESSURE GPRESSURE VOLUME PRESSAVG GPRESSAVG
ENERGY: 900000 0.0000 0.0000 0.0000 0.0000 -11149.1054 1447.6403 0.0000 0.0000 1563.4676 -8137.9975 266.5219 -9701.4651 -8135.6133 266.5219 -794.7049 -700.6681 29715.0782 -794.7049 -700.6681
ENERGY: 1100000 0.0000 0.0000 0.0000 0.0000 -10928.0945 1513.6827 0.0000 0.0000 1766.5692 -7647.8426 301.1443 -9414.4119 -7643.0171 299.2160 343.1870 461.2721 30532.7060 2.4565 2.6006
ENERGY: 1300000 0.0000 0.0000 0.0000 0.0000 -10871.2275 1476.9354 0.0000 0.0000 1851.1329 -7543.1592 315.5598 -9394.2921 -7539.6975 300.1725 620.2142 712.1161 29846.0126 1.9904 1.7359
ENERGY: 1500000 0.0000 0.0000 0.0000 0.0000 -10781.7489 1420.5682 0.0000 0.0000 1787.3532 -7573.8274 304.6873 -9361.1806 -7568.8643 300.5698 -258.4854 -269.5580 30808.4801 3.4241 3.4043
ENERGY: 1700000 0.0000 0.0000 0.0000 0.0000 -10776.5991 1408.0449 0.0000 0.0000 1752.8935 -7615.6606 298.8131 -9368.5541 -7613.9932 300.2353 -388.2829 -277.7608 30369.9350 3.3788 3.1384
ENERGY: 1900000 0.0000 0.0000 0.0000 0.0000 -10781.9924 1450.7366 0.0000 0.0000 1794.0767 -7537.1791 305.8335 -9331.2558 -7534.7063 299.9408 98.7699 143.8297 30532.8057 3.7947 3.7790
TCL: Exiting due to exit command.
