Info: SIMULATION PARAMETERS:
Info: TIMESTEP               2
Info: NUMBER OF STEPS        0
Info: STEPS PER CYCLE        10
Info: PERIODIC CELL BASIS 1  30.455 0 0
Info: PERIODIC CELL BASIS 2  0 31.5269 0
Info: PERIODIC CELL BASIS 3  0 0 32.2285
Info: PERIODIC CELL CENTER   0 0 0
Info: WRAPPING WATERS AROUND PERIODIC BOUNDARIES ON OUTPUT.
Info: WRAPPING ALL CLUSTERS AROUND PERIODIC BOUNDARIES ON OUTPUT.
Info: FIRST LDB TIMESTEP     50
Info: LAST LDB TIMESTEP     -1
Info: HOM BACKGROUND SCALING 1
Info: PME BACKGROUND SCALING 1
Info: MIN ATOMS PER PATCH    40
Info: EMPTY PATCH LOAD       40 ATOMS
Info: VELOCITY FILE          mobley_4039055_equil.vel
Info: CENTER OF MASS MOVING INITIALLY? NO
Info: DIELECTRIC             1
Info: EXCLUDE                SCALED ONE-FOUR
Info: 1-4 ELECTROSTATICS SCALED BY 0.833333
Info: MODIFIED 1-4 VDW PARAMETERS WILL BE USED
Info: DCD FILENAME           mobley_4039055_prod.dcd
Info: DCD FREQUENCY          100000
Info: DCD FIRST STEP         100000
Info: DCD FILE WILL CONTAIN UNIT CELL DATA
Info: XST FILENAME           mobley_4039055_prod.xst
Info: XST FREQUENCY          100000
Info: NO VELOCITY DCD OUTPUT
Info: NO FORCE DCD OUTPUT
Info: OUTPUT FILENAME        mobley_4039055_prod
Info: BINARY OUTPUT FILES WILL BE USED
Info: RESTART FILENAME       mobley_4039055_prod.restart
Info: RESTART FREQUENCY      100000
Info: BINARY RESTART FILES WILL BE USED
Info: CUTOFF                 9
Info: PAIRLIST DISTANCE      11
Info: PAIRLIST SHRINK RATE   0.01
Info: PAIRLIST GROW RATE     0.01
Info: PAIRLIST TRIGGER       0.3
Info: PAIRLISTS PER CYCLE    2
Info: PAIRLISTS ENABLED
Info: MARGIN                 2
Info: HYDROGEN GROUP CUTOFF  2.5
Info: PATCH DIMENSION        15.5
Info: ENERGY OUTPUT STEPS    100000
Info: ENERGY EVALUATION STEPS    100000
Info: OUTPUT ENERGY PRECISION 4
Info: CROSSTERM ENERGY INCLUDED IN DIHEDRAL
Info: TIMING OUTPUT STEPS    1000000
Info: PRESSURE OUTPUT STEPS  100000
Info: FIXED ATOMS ACTIVE
Info: ALCHEMICAL FEP ON
Info: FEP CURRENT LAMBDA VALUE     0.55
Info: FEP COMPARISON LAMBDA VALUE  0.6
Info: FEP INTRA-ALCHEMICAL NON-BONDED INTERACTIONS WILL BE RETAINED
Info: FEP INTRA-ALCHEMICAL BONDED INTERACTIONS WILL BE RETAINED
Info: FEP VDW SHIFTING COEFFICIENT 5
Info: FEP ELEC. ACTIVE FOR ANNIHILATED PARTICLES BETWEEN LAMBDA = 0 AND LAMBDA = 0.5
Info: FEP ELEC. ACTIVE FOR EXNIHILATED PARTICLES BETWEEN LAMBDA = 0.5 AND LAMBDA = 1
Info: FEP VDW ACTIVE FOR ANNIHILATED PARTICLES BETWEEN LAMBDA = 0 AND LAMBDA = 1
Info: FEP VDW ACTIVE FOR EXNIHILATED PARTICLES BETWEEN LAMBDA = 0 AND LAMBDA = 1
Info: FEP BOND ACTIVE FOR ANNIHILATED PARTICLES BETWEEN LAMBDA = 1 AND LAMBDA = 1
Info: FEP BOND ACTIVE FOR EXNIHILATED PARTICLES BETWEEN LAMBDA = 0 AND LAMBDA = 0
Info: LANGEVIN DYNAMICS ACTIVE
Info: LANGEVIN TEMPERATURE   300
Info: LANGEVIN USING BBK INTEGRATOR
Info: LANGEVIN DAMPING COEFFICIENT IS 1 INVERSE PS
Info: LANGEVIN DYNAMICS APPLIED TO HYDROGENS
Info: LANGEVIN PISTON PRESSURE CONTROL ACTIVE
Info:        TARGET PRESSURE IS 1.01325 BAR
Info:     OSCILLATION PERIOD IS 50 FS
Info:             DECAY TIME IS 25 FS
Info:     PISTON TEMPERATURE IS 300 K
Info:       PRESSURE CONTROL IS GROUP-BASED
Info:    INITIAL STRAIN RATE IS -0.000301282 -0.000301282 -0.000301282
Info:       CELL FLUCTUATION IS ISOTROPIC
Info: PARTICLE MESH EWALD (PME) ACTIVE
Info: PME TOLERANCE               1e-06
Info: PME EWALD COEFFICIENT       0.348832
Info: PME INTERPOLATION ORDER     4
Info: PME GRID DIMENSIONS         32 32 36
Info: PME MAXIMUM GRID SPACING    1
Info: FULL ELECTROSTATIC EVALUATION FREQUENCY      2
Info: USING VERLET I (r-RESPA) MTS SCHEME.
Info: C1 SPLITTING OF LONG RANGE ELECTROSTATICS
Info: PLACING ATOMS IN PATCHES BY HYDROGEN GROUPS
Info: RIGID BONDS TO HYDROGEN : ALL
Info:         ERROR TOLERANCE : 1e-08
Info:          MAX ITERATIONS : 100
Info: RIGID WATER USING SETTLE ALGORITHM
Info: RANDOM NUMBER SEED     1742765130
Info: USE HYDROGEN BONDS?    NO
Info: Using AMBER format force field!
Info: AMBER PARM FILE        mobley_4039055.prmtop
Info: COORDINATE PDB         mobley_4039055.pdb
Info: Exclusions will be read from PARM file!
Info: SCNB (VDW SCALING)     2
Info: USING ARITHMETIC MEAN TO COMBINE L-J SIGMA PARAMETERS
Info: BINARY COORDINATES     mobley_4039055_equil.coor
Info: MIXED PRECISION AVX-512 TILES OPTIMIZATIONS: DISABLED
Info: SUMMARY OF PARAMETERS:
Info: 10 BONDS
Info: 14 ANGLES
Info:   14 HARMONIC
Info:   0 COSINE-BASED
Info: 7 DIHEDRAL
Info: 0 IMPROPER
Info: 0 CROSSTERM
Info: 0 VDW
Info: 36 VDW_PAIRS
Info: 0 NBTHOLE_PAIRS
Info: To read alchdata from file: mobley_4039055.pdb
Info: To read alchflag data from column: 5
Info: STRUCTURE SUMMARY:
Info: 2964 ATOMS
Info: 2964 BONDS
Info: 18 ANGLES
Info: 31 DIHEDRALS
Info: 0 IMPROPERS
Info: 0 CROSSTERMS
Info: 3003 EXCLUSIONS
Info: 12 FIXED ATOMS
Info: 2955 RIGID BONDS
Info: 3 RIGID BONDS BETWEEN FIXED ATOMS
Info: ALCH: 0 ATOMS TO DISAPPEAR IN FINAL STATE
Info: ALCH: 12 ATOMS TO APPEAR IN FINAL STATE
Info: 5904 DEGREES OF FREEDOM
Info: 993 HYDROGEN GROUPS
Info: 3 ATOMS IN LARGEST HYDROGEN GROUP
Info: 993 MIGRATION GROUPS
Info: 3 ATOMS IN LARGEST MIGRATION GROUP
Info: 9 HYDROGEN GROUPS WITH ALL ATOMS FIXED
Info: TOTAL MASS = 17918.7 amu
Info: TOTAL CHARGE = 4.19095e-08 e
Info: MASS DENSITY = 0.961581 g/cm^3
Info: ATOM DENSITY = 0.095785 atoms/A^3
Info: ADDED 0 IMPLICIT EXCLUSIONS
Info: NONBONDED TABLE R-SQUARED SPACING: 0.0625
Info: NONBONDED TABLE SIZE: 705 POINTS
Info: REMOVING COM VELOCITY -0.0272554 -0.0977995 -0.0628405
TCL: Running for 2500000 steps
ETITLE: TS BOND ANGLE DIHED IMPRP ELECT VDW BOUNDARY MISC KINETIC TOTAL TEMP POTENTIAL TOTAL3 TEMPAVG PRESSURE GPRESSURE VOLUME PRESSAVG GPRESSAVG
ENERGY: 0 0.0000 0.0000 0.0000 0.0000 -10903.7808 1466.4265 0.0000 0.0000 1749.9425 -7687.4118 298.3100 -9437.3543 -7683.8538 298.3100 1.1844 89.2109 30944.2976 1.1844 89.2109
ENERGY: 500000 0.0000 0.0000 0.0000 0.0000 -10796.6027 1390.3874 0.0000 0.0000 1742.6925 -7663.5229 297.0741 -9406.2153 -7661.0680 300.1956 -336.7661 -283.8948 30862.9759 2.6248 2.5833
ENERGY: 1000000 0.0000 0.0000 0.0000 0.0000 -10978.2746 1417.1359 0.0000 0.0000 1770.0179 -7791.1208 301.7322 -9561.1387 -7788.5796 300.3524 -270.3173 -218.0580 30181.0726 3.7186 3.7246
ENERGY: 1500000 0.0000 0.0000 0.0000 0.0000 -10995.2041 1498.1602 0.0000 0.0000 1741.1757 -7755.8681 296.8155 -9497.0438 -7753.2484 299.9725 205.0229 278.5623 30490.0957 3.1099 2.9385
ENERGY: 2000000 0.0000 0.0000 0.0000 0.0000 -10867.7919 1438.9580 0.0000 0.0000 1739.6686 -7689.1652 296.5586 -9428.8339 -7686.4660 299.9251 -83.3805 -13.3189 30853.9239 1.9730 1.8802
ENERGY: 2500000 0.0000 0.0000 0.0000 0.0000 -10740.5976 1379.3799 0.0000 0.0000 1746.1240 -7615.0937 297.6591 -9361.2177 -7613.0520 300.3260 -162.8119 -120.1243 30617.7405 5.1898 5.1787
TCL: Exiting due to exit command.
