Info: SIMULATION PARAMETERS:
Info: TIMESTEP               2
Info: NUMBER OF STEPS        0
Info: STEPS PER CYCLE        10
Info: PERIODIC CELL BASIS 1  31.0564 0 0
Info: PERIODIC CELL BASIS 2  0 29.6477 0
Info: PERIODIC CELL BASIS 3  0 0 33.2446
Info: PERIODIC CELL CENTER   0 0 0
Info: WRAPPING WATERS AROUND PERIODIC BOUNDARIES ON OUTPUT.
Info: WRAPPING ALL CLUSTERS AROUND PERIODIC BOUNDARIES ON OUTPUT.
Info: FIRST LDB TIMESTEP     50
Info: LAST LDB TIMESTEP     -1
Info: HOM BACKGROUND SCALING 1
Info: PME BACKGROUND SCALING 1
Info: MIN ATOMS PER PATCH    40
Info: EMPTY PATCH LOAD       40 ATOMS
Info: VELOCITY FILE          mobley_8789465_equil.vel
Info: CENTER OF MASS MOVING INITIALLY? NO
Info: DIELECTRIC             1
Info: EXCLUDE                SCALED ONE-FOUR
Info: 1-4 ELECTROSTATICS SCALED BY 0.833333
Info: MODIFIED 1-4 VDW PARAMETERS WILL BE USED
Info: DCD FILENAME           mobley_8789465_prod.dcd
Info: DCD FREQUENCY          100000
Info: DCD FIRST STEP         100000
Info: DCD FILE WILL CONTAIN UNIT CELL DATA
Info: XST FILENAME           mobley_8789465_prod.xst
Info: XST FREQUENCY          100000
Info: NO VELOCITY DCD OUTPUT
Info: NO FORCE DCD OUTPUT
Info: OUTPUT FILENAME        mobley_8789465_prod
Info: BINARY OUTPUT FILES WILL BE USED
Info: RESTART FILENAME       mobley_8789465_prod.restart
Info: RESTART FREQUENCY      100000
Info: BINARY RESTART FILES WILL BE USED
Info: CUTOFF                 9
Info: PAIRLIST DISTANCE      11
Info: PAIRLIST SHRINK RATE   0.01
Info: PAIRLIST GROW RATE     0.01
Info: PAIRLIST TRIGGER       0.3
Info: PAIRLISTS PER CYCLE    2
Info: PAIRLISTS ENABLED
Info: MARGIN                 2
Info: HYDROGEN GROUP CUTOFF  2.5
Info: PATCH DIMENSION        15.5
Info: ENERGY OUTPUT STEPS    100000
Info: ENERGY EVALUATION STEPS    100000
Info: OUTPUT ENERGY PRECISION 4
Info: CROSSTERM ENERGY INCLUDED IN DIHEDRAL
Info: TIMING OUTPUT STEPS    1000000
Info: PRESSURE OUTPUT STEPS  100000
Info: ALCHEMICAL FEP ON
Info: FEP CURRENT LAMBDA VALUE     0
Info: FEP COMPARISON LAMBDA VALUE  0.05
Info: FEP INTRA-ALCHEMICAL NON-BONDED INTERACTIONS WILL BE RETAINED
Info: FEP INTRA-ALCHEMICAL BONDED INTERACTIONS WILL BE RETAINED
Info: FEP VDW SHIFTING COEFFICIENT 5
Info: FEP ELEC. ACTIVE FOR ANNIHILATED PARTICLES BETWEEN LAMBDA = 0 AND LAMBDA = 0.5
Info: FEP ELEC. ACTIVE FOR EXNIHILATED PARTICLES BETWEEN LAMBDA = 0.5 AND LAMBDA = 1
Info: FEP VDW ACTIVE FOR ANNIHILATED PARTICLES BETWEEN LAMBDA = 0 AND LAMBDA = 1
Info: FEP VDW ACTIVE FOR EXNIHILATED PARTICLES BETWEEN LAMBDA = 0 AND LAMBDA = 1
Info: FEP BOND ACTIVE FOR ANNIHILATED PARTICLES BETWEEN LAMBDA = 1 AND LAMBDA = 1
Info: FEP BOND ACTIVE FOR EXNIHILATED PARTICLES BETWEEN LAMBDA = 0 AND LAMBDA = 0
Info: LANGEVIN DYNAMICS ACTIVE
Info: LANGEVIN TEMPERATURE   300
Info: LANGEVIN USING BBK INTEGRATOR
Info: LANGEVIN DAMPING COEFFICIENT IS 1 INVERSE PS
Info: LANGEVIN DYNAMICS APPLIED TO HYDROGENS
Info: LANGEVIN PISTON PRESSURE CONTROL ACTIVE
Info:        TARGET PRESSURE IS 1.01325 BAR
Info:     OSCILLATION PERIOD IS 50 FS
Info:             DECAY TIME IS 25 FS
Info:     PISTON TEMPERATURE IS 300 K
Info:       PRESSURE CONTROL IS GROUP-BASED
Info:    INITIAL STRAIN RATE IS -0.000470348 -0.000470348 -0.000470348
Info:       CELL FLUCTUATION IS ISOTROPIC
Info: PARTICLE MESH EWALD (PME) ACTIVE
Info: PME TOLERANCE               1e-06
Info: PME EWALD COEFFICIENT       0.348832
Info: PME INTERPOLATION ORDER     4
Info: PME GRID DIMENSIONS         32 32 36
Info: PME MAXIMUM GRID SPACING    1
Info: PME CALCULATION WILL BE PERFORMED ON GPU
Info: FULL ELECTROSTATIC EVALUATION FREQUENCY      2
Info: USING VERLET I (r-RESPA) MTS SCHEME.
Info: C1 SPLITTING OF LONG RANGE ELECTROSTATICS
Info: PLACING ATOMS IN PATCHES BY HYDROGEN GROUPS
Info: RIGID BONDS TO HYDROGEN : ALL
Info:         ERROR TOLERANCE : 1e-08
Info:          MAX ITERATIONS : 100
Info: RIGID WATER USING SETTLE ALGORITHM
Info: RANDOM NUMBER SEED     1742596452
Info: USE HYDROGEN BONDS?    NO
Info: Using AMBER format force field!
Info: AMBER PARM FILE        mobley_8789465.prmtop
Info: COORDINATE PDB         mobley_8789465.pdb
Info: Exclusions will be read from PARM file!
Info: SCNB (VDW SCALING)     2
Info: USING ARITHMETIC MEAN TO COMBINE L-J SIGMA PARAMETERS
Info: BINARY COORDINATES     mobley_8789465_equil.coor
Info: SUMMARY OF PARAMETERS:
Info: 7 BONDS
Info: 5 ANGLES
Info:   5 HARMONIC
Info:   0 COSINE-BASED
Info: 3 DIHEDRAL
Info: 0 IMPROPER
Info: 0 CROSSTERM
Info: 0 VDW
Info: 28 VDW_PAIRS
Info: 0 NBTHOLE_PAIRS
Info: To read alchdata from file: mobley_8789465.pdb
Info: To read alchflag data from column: 5
Info: STRUCTURE SUMMARY:
Info: 2971 ATOMS
Info: 2971 BONDS
Info: 19 ANGLES
Info: 31 DIHEDRALS
Info: 0 IMPROPERS
Info: 0 CROSSTERMS
Info: 3013 EXCLUSIONS
Info: 2963 RIGID BONDS
Info: ALCH: 0 ATOMS TO DISAPPEAR IN FINAL STATE
Info: ALCH: 13 ATOMS TO APPEAR IN FINAL STATE
Info: 5950 DEGREES OF FREEDOM
Info: 994 HYDROGEN GROUPS
Info: 3 ATOMS IN LARGEST HYDROGEN GROUP
Info: 994 MIGRATION GROUPS
Info: 3 ATOMS IN LARGEST MIGRATION GROUP
Info: TOTAL MASS = 17983.8 amu
Info: TOTAL CHARGE = 7.45058e-09 e
Info: MASS DENSITY = 0.97561 g/cm^3
Info: ATOM DENSITY = 0.0970597 atoms/A^3
Info: ADDED 0 IMPLICIT EXCLUSIONS
Info: NONBONDED TABLE R-SQUARED SPACING: 0.0625
Info: NONBONDED TABLE SIZE: 705 POINTS
Info: REMOVING COM VELOCITY 0.025847 -0.0523349 -0.216079
Info: Use 3D box decompostion in PME FFT.
Info: Updated CUDA force table with 4096 elements.
Info: Updated CUDA LJ table with 7 x 7 elements.
Info: Found 15 unique exclusion lists needing 28 bytes
TCL: Running for 1500000 steps
ETITLE: TS BOND ANGLE DIHED IMPRP ELECT VDW BOUNDARY MISC KINETIC TOTAL TEMP POTENTIAL TOTALAVG TEMPAVG PRESSURE GPRESSURE VOLUME PRESSAVG GPRESSAVG
ENERGY: 0 1.0473 2.8738 2.3575 0.0000 -10772.3333 1452.1508 0.0000 0.0000 1762.2762 -7551.6277 298.0900 -9313.9039 -7551.6277 298.0900 -2.5915 65.5692 30610.0278 -2.5915 65.5692
ENERGY: 300000 3.6624 4.8012 2.4246 0.0000 -10846.0491 1433.0510 0.0000 0.0000 1771.2407 -7630.8691 299.6063 -9402.1098 -7591.2431 298.0468 -600.2364 -544.3337 30724.1080 -54.4224 8.2360
ENERGY: 600000 1.9519 1.7291 2.2160 0.0000 -10920.2582 1540.6155 0.0000 0.0000 1775.5770 -7598.1687 300.3398 -9373.7457 -7591.6886 299.4310 489.6477 575.2406 30395.1036 177.4060 242.4414
ENERGY: 900000 3.8857 1.5710 2.0746 0.0000 -10879.0948 1493.2752 0.0000 0.0000 1780.0645 -7598.2238 301.0989 -9378.2883 -7587.0374 299.4378 -12.2369 84.7266 30481.0201 170.3825 235.4181
ENERGY: 1200000 0.6649 3.2760 1.0776 0.0000 -10720.1309 1420.2833 0.0000 0.0000 1803.2934 -7491.5358 305.0281 -9294.8292 -7578.6939 300.0371 -125.8442 -38.8354 30506.8861 159.4277 224.9178
ENERGY: 1500000 1.1384 8.7033 3.0491 0.0000 -10847.7494 1449.8222 0.0000 0.0000 1771.6114 -7613.4251 299.6690 -9385.0365 -7585.4470 299.6322 -278.9712 -226.6743 30274.5807 107.1256 166.9644
TCL: Running FEP window   2: Lambda1 0.05   Lambda2 0.1    [dLambda 0.05  ]
TCL: Setting parameter firsttimestep to 0
TCL: Setting parameter alchLambda to 0.05
Info: NONBONDED TABLE R-SQUARED SPACING: 0.0625
Info: NONBONDED TABLE SIZE: 705 POINTS
TCL: Setting parameter alchLambda2 to 0.1
Info: NONBONDED TABLE R-SQUARED SPACING: 0.0625
Info: NONBONDED TABLE SIZE: 705 POINTS
TCL: Running for 1500000 steps
ETITLE: TS BOND ANGLE DIHED IMPRP ELECT VDW BOUNDARY MISC KINETIC TOTAL TEMP POTENTIAL TOTALAVG TEMPAVG PRESSURE GPRESSURE VOLUME PRESSAVG GPRESSAVG
ENERGY: 0 1.1384 8.7033 3.0491 0.0000 -10847.7498 1452.7849 0.0000 0.0000 1770.7193 -7611.3549 299.5181 -9382.0741 -7611.3549 299.5181 -313.9472 -213.2591 30274.5807 -313.9472 -213.2591
ENERGY: 300000 2.1519 2.2759 3.6880 0.0000 -10841.1673 1442.9476 0.0000 0.0000 1773.6997 -7616.4041 300.0223 -9390.1038 -7621.6483 295.5955 -257.0253 -229.1979 30307.1203 -376.8934 -329.7290
ENERGY: 600000 3.2380 3.8659 2.8381 0.0000 -10698.6594 1434.9709 0.0000 0.0000 1773.4495 -7480.2971 299.9800 -9253.7466 -7569.7037 298.1919 -244.1482 -89.3335 30758.8420 -303.9188 -240.5252
ENERGY: 900000 1.6328 3.2741 0.8640 0.0000 -10676.9194 1340.5223 0.0000 0.0000 1774.9787 -7555.6475 300.2386 -9330.6262 -7564.3503 299.7622 -827.0097 -797.3001 30547.3816 -383.1994 -320.7052
ENERGY: 1200000 2.1801 1.8018 1.4943 0.0000 -10793.6177 1415.5091 0.0000 0.0000 1715.7175 -7656.9151 290.2146 -9372.6326 -7562.0232 299.7570 -398.9201 -321.1694 30362.2779 -362.2523 -301.3756
ENERGY: 1500000 1.6298 3.2891 3.2587 0.0000 -10769.0657 1457.3276 0.0000 0.0000 1753.4903 -7550.0702 296.6039 -9303.5605 -7572.6269 299.3666 -351.6589 -199.9885 31294.5321 -279.2495 -215.0177
TCL: Running FEP window   3: Lambda1 0.1    Lambda2 0.15000000000000002 [dLambda 0.05000000000000002]
TCL: Setting parameter firsttimestep to 0
TCL: Setting parameter alchLambda to 0.1
Info: NONBONDED TABLE R-SQUARED SPACING: 0.0625
Info: NONBONDED TABLE SIZE: 705 POINTS
TCL: Setting parameter alchLambda2 to 0.15000000000000002
Info: NONBONDED TABLE R-SQUARED SPACING: 0.0625
Info: NONBONDED TABLE SIZE: 705 POINTS
TCL: Running for 1500000 steps
ETITLE: TS BOND ANGLE DIHED IMPRP ELECT VDW BOUNDARY MISC KINETIC TOTAL TEMP POTENTIAL TOTALAVG TEMPAVG PRESSURE GPRESSURE VOLUME PRESSAVG GPRESSAVG
ENERGY: 0 1.6298 3.2891 3.2587 0.0000 -10769.0640 1461.6466 0.0000 0.0000 1752.6085 -7546.6313 296.4547 -9299.2398 -7546.6313 296.4547 -263.2740 -184.2377 31294.5321 -263.2740 -184.2377
ENERGY: 300000 1.4214 3.0487 2.3573 0.0000 -10749.3708 1425.0246 0.0000 0.0000 1834.8272 -7482.6917 310.3620 -9317.5189 -7568.1009 297.7732 -342.3079 -215.6506 30855.7616 -159.1913 -62.0468
ENERGY: 600000 1.1419 3.8511 2.5871 0.0000 -10785.5263 1479.3919 0.0000 0.0000 1825.0632 -7473.4910 308.7105 -9298.5543 -7567.8759 298.0528 416.7777 509.8850 30248.5631 129.8051 214.7411
ENERGY: 900000 1.6177 2.1639 2.8458 0.0000 -10822.1669 1450.1565 0.0000 0.0000 1742.5823 -7622.8007 294.7588 -9365.3830 -7568.4205 297.9295 24.9567 83.0973 30223.0732 80.1085 152.7144
ENERGY: 1200000 1.9181 3.4384 7.6244 0.0000 -10790.7835 1499.8185 0.0000 0.0000 1697.2236 -7580.7603 287.0863 -9277.9840 -7571.2021 297.5254 340.9005 421.9520 30643.2847 72.6215 140.7321
ENERGY: 1500000 3.4793 3.3795 2.4530 0.0000 -10864.9872 1520.0919 0.0000 0.0000 1839.2437 -7496.3398 311.1091 -9335.5835 -7561.0883 298.6493 383.2673 409.4237 30487.2480 91.5910 157.8336
TCL: Running FEP window   4: Lambda1 0.15000000000000002 Lambda2 0.2    [dLambda 0.04999999999999999]
TCL: Setting parameter firsttimestep to 0
TCL: Setting parameter alchLambda to 0.15000000000000002
Info: NONBONDED TABLE R-SQUARED SPACING: 0.0625
Info: NONBONDED TABLE SIZE: 705 POINTS
TCL: Setting parameter alchLambda2 to 0.2
Info: NONBONDED TABLE R-SQUARED SPACING: 0.0625
Info: NONBONDED TABLE SIZE: 705 POINTS
TCL: Running for 1500000 steps
ETITLE: TS BOND ANGLE DIHED IMPRP ELECT VDW BOUNDARY MISC KINETIC TOTAL TEMP POTENTIAL TOTALAVG TEMPAVG PRESSURE GPRESSURE VOLUME PRESSAVG GPRESSAVG
ENERGY: 0 3.4793 3.3795 2.4530 0.0000 -10864.9865 1520.9348 0.0000 0.0000 1838.3317 -7496.4082 310.9548 -9334.7399 -7496.4082 310.9548 349.4776 419.3617 30487.2480 349.4776 419.3617
ENERGY: 300000 3.5719 4.4020 1.5619 0.0000 -10798.1713 1439.6465 0.0000 0.0000 1759.7657 -7589.2232 297.6653 -9348.9889 -7542.5908 299.8567 -73.2471 -44.2465 30515.4819 20.6797 78.4282
ENERGY: 600000 2.3106 1.2605 1.2206 0.0000 -10871.3141 1468.3623 0.0000 0.0000 1755.8559 -7642.3041 297.0040 -9398.1601 -7569.0968 299.5350 309.4103 308.1982 30112.8311 110.0664 153.7959
ENERGY: 900000 4.6501 4.5923 4.4412 0.0000 -10638.1755 1331.2769 0.0000 0.0000 1808.6313 -7484.5836 305.9310 -9293.2150 -7562.0134 299.8959 -788.2562 -718.1407 30425.9467 104.2799 143.4475
ENERGY: 1200000 1.4814 3.7085 2.9162 0.0000 -10907.7086 1489.7847 0.0000 0.0000 1819.2366 -7590.5813 307.7249 -9409.8179 -7559.9886 300.6006 320.3449 412.4352 29878.4337 80.6664 119.6709
ENERGY: 1500000 2.2353 2.9927 2.4295 0.0000 -10846.2313 1454.0860 0.0000 0.0000 1776.4864 -7608.0014 300.4937 -9384.4878 -7554.6556 300.8814 -263.0969 -189.2242 30317.6546 76.6150 113.1441
TCL: Running FEP window   5: Lambda1 0.2    Lambda2 0.25   [dLambda 0.04999999999999999]
TCL: Setting parameter firsttimestep to 0
TCL: Setting parameter alchLambda to 0.2
Info: NONBONDED TABLE R-SQUARED SPACING: 0.0625
Info: NONBONDED TABLE SIZE: 705 POINTS
TCL: Setting parameter alchLambda2 to 0.25
Info: NONBONDED TABLE R-SQUARED SPACING: 0.0625
Info: NONBONDED TABLE SIZE: 705 POINTS
TCL: Running for 1500000 steps
ETITLE: TS BOND ANGLE DIHED IMPRP ELECT VDW BOUNDARY MISC KINETIC TOTAL TEMP POTENTIAL TOTALAVG TEMPAVG PRESSURE GPRESSURE VOLUME PRESSAVG GPRESSAVG
ENERGY: 0 2.2353 2.9927 2.4295 0.0000 -10846.2321 1454.6258 0.0000 0.0000 1775.6229 -7608.3260 300.3476 -9383.9488 -7608.3260 300.3476 -262.9291 -181.0203 30317.6546 -262.9291 -181.0203
ENERGY: 300000 2.2581 4.6640 2.0518 0.0000 -10743.1663 1389.6790 0.0000 0.0000 1807.9951 -7536.5183 305.8234 -9344.5134 -7579.6994 299.4737 -566.3098 -444.3246 30438.7297 -349.0540 -279.3690
ENERGY: 600000 2.2138 2.6879 5.2767 0.0000 -10703.8385 1389.7160 0.0000 0.0000 1794.0831 -7509.8609 303.4702 -9303.9441 -7560.6813 301.0835 -195.1234 -159.4622 30240.3076 -156.9274 -81.0470
ENERGY: 900000 2.1517 4.1510 2.5140 0.0000 -10722.3013 1473.4707 0.0000 0.0000 1808.1272 -7431.8867 305.8457 -9240.0139 -7537.4569 301.2655 413.6899 441.7277 30713.5409 -26.4395 43.1595
ENERGY: 1200000 3.2095 2.9574 3.6904 0.0000 -10777.5373 1403.7588 0.0000 0.0000 1843.5294 -7520.3918 311.8340 -9363.9212 -7523.6255 302.6150 -504.4672 -425.8649 30529.1466 -53.3779 12.6802
ENERGY: 1500000 2.3023 2.6142 2.2162 0.0000 -10932.5121 1579.0353 0.0000 0.0000 1810.9258 -7535.4183 306.3191 -9346.3441 -7525.8335 302.7147 818.7743 857.1045 30669.4235 72.3485 138.4789
TCL: Running FEP window   6: Lambda1 0.25   Lambda2 0.3    [dLambda 0.04999999999999999]
TCL: Setting parameter firsttimestep to 0
TCL: Setting parameter alchLambda to 0.25
Info: NONBONDED TABLE R-SQUARED SPACING: 0.0625
Info: NONBONDED TABLE SIZE: 705 POINTS
TCL: Setting parameter alchLambda2 to 0.3
Info: NONBONDED TABLE R-SQUARED SPACING: 0.0625
Info: NONBONDED TABLE SIZE: 705 POINTS
TCL: Running for 1500000 steps
ETITLE: TS BOND ANGLE DIHED IMPRP ELECT VDW BOUNDARY MISC KINETIC TOTAL TEMP POTENTIAL TOTALAVG TEMPAVG PRESSURE GPRESSURE VOLUME PRESSAVG GPRESSAVG
ENERGY: 0 2.3023 2.6142 2.2162 0.0000 -10932.5118 1579.6528 0.0000 0.0000 1810.0425 -7535.6837 306.1697 -9345.7263 -7535.6837 306.1697 772.7475 863.1067 30669.4235 772.7475 863.1067
ENERGY: 300000 3.4132 6.9632 4.7212 0.0000 -10834.5529 1455.9372 0.0000 0.0000 1795.1907 -7568.3274 303.6575 -9363.5181 -7530.5939 304.1023 -305.5808 -239.3087 30442.8693 173.2253 256.4493
ENERGY: 600000 3.9604 3.0055 2.1319 0.0000 -10765.6258 1452.5579 0.0000 0.0000 1705.9873 -7597.9827 288.5687 -9303.9700 -7537.6088 300.9213 -157.7123 -103.3022 30706.5567 116.2936 192.2543
ENERGY: 900000 1.2378 1.1352 1.8093 0.0000 -10873.0376 1483.7328 0.0000 0.0000 1748.5337 -7636.5888 295.7654 -9385.1225 -7557.5831 299.8056 181.6516 225.1227 30240.5991 67.4189 130.7339
ENERGY: 1200000 1.1109 1.2944 2.4768 0.0000 -10759.2419 1456.5826 0.0000 0.0000 1758.9913 -7538.7859 297.5343 -9297.7772 -7563.7780 298.6148 21.6150 59.4598 30481.6633 80.0201 141.5682
ENERGY: 1500000 1.1242 3.8282 3.4320 0.0000 -10688.8640 1354.6830 0.0000 0.0000 1760.8540 -7564.9427 297.8494 -9325.7967 -7562.6773 298.9826 -876.2730 -751.8235 30390.3197 -48.6788 16.0963
TCL: Running FEP window   7: Lambda1 0.3    Lambda2 0.35   [dLambda 0.04999999999999999]
TCL: Setting parameter firsttimestep to 0
TCL: Setting parameter alchLambda to 0.3
Info: NONBONDED TABLE R-SQUARED SPACING: 0.0625
Info: NONBONDED TABLE SIZE: 705 POINTS
TCL: Setting parameter alchLambda2 to 0.35
Info: NONBONDED TABLE R-SQUARED SPACING: 0.0625
Info: NONBONDED TABLE SIZE: 705 POINTS
TCL: Running for 1500000 steps
ETITLE: TS BOND ANGLE DIHED IMPRP ELECT VDW BOUNDARY MISC KINETIC TOTAL TEMP POTENTIAL TOTALAVG TEMPAVG PRESSURE GPRESSURE VOLUME PRESSAVG GPRESSAVG
ENERGY: 0 1.1242 3.8282 3.4320 0.0000 -10688.8645 1355.7557 0.0000 0.0000 1759.9511 -7564.7734 297.6967 -9324.7245 -7564.7734 297.6967 -824.4203 -740.1545 30390.3197 -824.4203 -740.1545
ENERGY: 300000 2.6548 4.6092 3.3750 0.0000 -10886.5889 1477.3730 0.0000 0.0000 1708.4644 -7690.1125 288.9877 -9398.5770 -7564.9672 300.0003 111.9142 174.5471 30027.4441 -5.0594 74.8993
ENERGY: 600000 2.1628 1.6445 4.7262 0.0000 -10911.4001 1513.1499 0.0000 0.0000 1772.8436 -7616.8731 299.8775 -9389.7167 -7567.4694 299.4065 338.4223 405.6358 30289.3223 -88.3058 -15.1727
ENERGY: 900000 1.7588 3.4852 1.3854 0.0000 -10814.3285 1463.8946 0.0000 0.0000 1826.1427 -7517.6617 308.8930 -9343.8045 -7563.0734 299.1569 157.7707 251.5873 30579.2603 -217.3243 -148.8283
ENERGY: 1200000 2.3476 1.1050 1.6911 0.0000 -10692.4874 1413.2349 0.0000 0.0000 1752.9267 -7521.1821 296.5085 -9274.1088 -7563.1153 298.6387 -298.2661 -227.5029 30835.6309 -263.7129 -190.0925
ENERGY: 1500000 1.9444 3.6077 2.9737 0.0000 -10759.9597 1381.5531 0.0000 0.0000 1786.5257 -7583.3551 302.1918 -9369.8808 -7562.0044 299.4214 -704.8156 -619.5530 30382.0612 -319.0898 -247.7513
TCL: Running FEP window   8: Lambda1 0.35   Lambda2 0.39999999999999997 [dLambda 0.04999999999999999]
TCL: Setting parameter firsttimestep to 0
TCL: Setting parameter alchLambda to 0.35
Info: NONBONDED TABLE R-SQUARED SPACING: 0.0625
Info: NONBONDED TABLE SIZE: 705 POINTS
TCL: Setting parameter alchLambda2 to 0.39999999999999997
Info: NONBONDED TABLE R-SQUARED SPACING: 0.0625
Info: NONBONDED TABLE SIZE: 705 POINTS
TCL: Running for 1500000 steps
ETITLE: TS BOND ANGLE DIHED IMPRP ELECT VDW BOUNDARY MISC KINETIC TOTAL TEMP POTENTIAL TOTALAVG TEMPAVG PRESSURE GPRESSURE VOLUME PRESSAVG GPRESSAVG
ENERGY: 0 1.9444 3.6077 2.9737 0.0000 -10759.9600 1381.6217 0.0000 0.0000 1785.5724 -7584.2402 302.0306 -9369.8126 -7584.2402 302.0306 -686.1088 -614.3309 30382.0612 -686.1088 -614.3309
ENERGY: 300000 2.0049 3.9458 6.9476 0.0000 -10768.4641 1420.7994 0.0000 0.0000 1804.3814 -7530.3849 305.2121 -9334.7663 -7535.9713 302.3940 -186.3750 -177.2071 30544.2412 -378.1320 -324.4424
ENERGY: 600000 3.4102 2.2725 5.2058 0.0000 -10794.2484 1471.4030 0.0000 0.0000 1716.0613 -7595.8955 290.2727 -9311.9568 -7548.2892 298.6987 103.9030 121.8548 30647.0483 -53.6371 -7.4505
ENERGY: 900000 1.7571 7.7211 2.3330 0.0000 -10784.1290 1472.0527 0.0000 0.0000 1806.4457 -7493.8195 305.5613 -9300.2651 -7546.4899 299.4399 130.7470 220.2097 30775.6272 -2.1992 51.5583
ENERGY: 1200000 3.9977 3.5828 2.5775 0.0000 -10905.8036 1503.3938 0.0000 0.0000 1766.7416 -7625.5101 298.8453 -9392.2517 -7554.3455 299.7086 391.7024 374.4763 30419.4208 -64.3374 -13.5754
ENERGY: 1500000 4.0534 2.9949 4.2595 0.0000 -10744.3373 1492.2524 0.0000 0.0000 1734.9316 -7505.8456 293.4646 -9240.7772 -7543.0830 299.8675 386.4710 431.2798 30634.6216 -36.1349 14.4582
TCL: Running FEP window   9: Lambda1 0.39999999999999997 Lambda2 0.44999999999999996 [dLambda 0.04999999999999999]
TCL: Setting parameter firsttimestep to 0
TCL: Setting parameter alchLambda to 0.39999999999999997
Info: NONBONDED TABLE R-SQUARED SPACING: 0.0625
Info: NONBONDED TABLE SIZE: 705 POINTS
TCL: Setting parameter alchLambda2 to 0.44999999999999996
Info: NONBONDED TABLE R-SQUARED SPACING: 0.0625
Info: NONBONDED TABLE SIZE: 705 POINTS
TCL: Running for 1500000 steps
ETITLE: TS BOND ANGLE DIHED IMPRP ELECT VDW BOUNDARY MISC KINETIC TOTAL TEMP POTENTIAL TOTALAVG TEMPAVG PRESSURE GPRESSURE VOLUME PRESSAVG GPRESSAVG
ENERGY: 0 4.0534 2.9949 4.2595 0.0000 -10744.3365 1492.0794 0.0000 0.0000 1734.0556 -7506.8938 293.3165 -9240.9494 -7506.8938 293.3165 361.6179 433.6883 30634.6216 361.6179 433.6883
ENERGY: 300000 5.2820 3.6032 2.7213 0.0000 -10728.6677 1380.4771 0.0000 0.0000 1752.7917 -7583.7924 296.4857 -9336.5840 -7576.8559 292.7386 -687.3576 -593.2521 30337.3916 -144.7558 -67.9372
ENERGY: 600000 1.9868 2.7963 1.0252 0.0000 -10703.4343 1440.5261 0.0000 0.0000 1754.6156 -7502.4844 296.7942 -9257.1000 -7565.0556 295.5322 65.3275 164.3763 30599.6231 -92.5250 -22.4198
ENERGY: 900000 4.4146 3.6828 3.2966 0.0000 -10603.2080 1377.7101 0.0000 0.0000 1807.5889 -7406.5150 305.7547 -9214.1039 -7533.0467 298.8633 -585.1461 -495.3876 30955.3339 -121.8303 -57.6701
ENERGY: 1200000 2.6641 2.6946 2.7292 0.0000 -10738.0005 1457.2830 0.0000 0.0000 1774.9969 -7497.6328 300.2417 -9272.6297 -7530.4449 300.1198 228.6864 259.6472 30581.3263 -34.6470 23.2004
ENERGY: 1500000 1.0299 3.1716 2.7378 0.0000 -10701.1217 1365.1412 0.0000 0.0000 1799.4129 -7529.6283 304.3717 -9329.0412 -7538.3594 299.3785 -789.1462 -731.6768 30641.6794 -105.0338 -44.7668
TCL: Running FEP window  10: Lambda1 0.44999999999999996 Lambda2 0.49999999999999994 [dLambda 0.04999999999999999]
TCL: Setting parameter firsttimestep to 0
TCL: Setting parameter alchLambda to 0.44999999999999996
Info: NONBONDED TABLE R-SQUARED SPACING: 0.0625
Info: NONBONDED TABLE SIZE: 705 POINTS
TCL: Setting parameter alchLambda2 to 0.49999999999999994
Info: NONBONDED TABLE R-SQUARED SPACING: 0.0625
Info: NONBONDED TABLE SIZE: 705 POINTS
TCL: Running for 1500000 steps
ETITLE: TS BOND ANGLE DIHED IMPRP ELECT VDW BOUNDARY MISC KINETIC TOTAL TEMP POTENTIAL TOTALAVG TEMPAVG PRESSURE GPRESSURE VOLUME PRESSAVG GPRESSAVG
ENERGY: 0 1.0299 3.1716 2.7378 0.0000 -10701.1208 1364.6338 0.0000 0.0000 1798.5306 -7531.0171 304.2224 -9329.5477 -7531.0171 304.2224 -828.3422 -726.9398 30641.6794 -828.3422 -726.9398
ENERGY: 300000 2.4674 4.7808 2.6366 0.0000 -10968.3896 1584.6859 0.0000 0.0000 1845.4079 -7528.4110 312.1518 -9373.8189 -7518.4534 302.3469 952.0753 1032.7839 30149.9232 82.4441 147.7050
ENERGY: 600000 2.6544 2.3434 4.4995 0.0000 -10913.5908 1499.1500 0.0000 0.0000 1772.9106 -7632.0329 299.8888 -9404.9436 -7547.0916 300.3026 112.7278 176.5903 30548.1221 -47.6133 -3.9225
ENERGY: 900000 3.6678 5.2110 1.4103 0.0000 -10668.5902 1377.6009 0.0000 0.0000 1838.0728 -7442.6274 310.9110 -9280.7002 -7539.5978 300.6838 -489.0217 -481.0777 30802.6429 -97.1448 -55.6238
ENERGY: 1200000 1.6666 3.2477 2.8826 0.0000 -10689.7144 1415.3778 0.0000 0.0000 1778.7587 -7487.7810 300.8780 -9266.5397 -7531.8516 301.3097 89.5388 196.7246 30249.4975 68.1925 120.2374
ENERGY: 1500000 1.6887 1.9704 1.5941 0.0000 -10695.9381 1417.2887 0.0000 0.0000 1776.4366 -7496.9596 300.4852 -9273.3962 -7536.4466 301.4839 -178.8123 -164.9946 30693.6747 31.4092 77.4500
TCL: Running FEP window  11: Lambda1 0.49999999999999994 Lambda2 0.5499999999999999 [dLambda 0.04999999999999999]
TCL: Setting parameter firsttimestep to 0
TCL: Setting parameter alchLambda to 0.49999999999999994
Info: NONBONDED TABLE R-SQUARED SPACING: 0.0625
Info: NONBONDED TABLE SIZE: 705 POINTS
TCL: Setting parameter alchLambda2 to 0.5499999999999999
Info: NONBONDED TABLE R-SQUARED SPACING: 0.0625
Info: NONBONDED TABLE SIZE: 705 POINTS
TCL: Running for 1500000 steps
ETITLE: TS BOND ANGLE DIHED IMPRP ELECT VDW BOUNDARY MISC KINETIC TOTAL TEMP POTENTIAL TOTALAVG TEMPAVG PRESSURE GPRESSURE VOLUME PRESSAVG GPRESSAVG
ENERGY: 0 1.6887 1.9704 1.5941 0.0000 -10695.9382 1417.0697 0.0000 0.0000 1775.5474 -7498.0679 300.3348 -9273.6153 -7498.0679 300.3348 -232.0930 -160.8831 30693.6747 -232.0930 -160.8831
ENERGY: 300000 2.4081 2.0189 4.2433 0.0000 -10694.5040 1402.3989 0.0000 0.0000 1796.1347 -7487.3001 303.8172 -9283.4348 -7538.6923 296.4824 -444.1005 -345.0994 30785.3057 -352.0584 -279.2930
ENERGY: 600000 2.0654 4.1805 2.1927 0.0000 -10884.1376 1500.0256 0.0000 0.0000 1777.1498 -7598.5235 300.6059 -9375.6733 -7542.7325 297.5983 53.8999 34.2419 30967.4540 -298.3405 -240.1244
ENERGY: 900000 1.5302 4.3220 1.7424 0.0000 -10894.5678 1538.0540 0.0000 0.0000 1703.5139 -7645.4053 288.1503 -9348.9192 -7551.5959 296.4691 339.1422 430.5585 30802.0291 -159.0945 -102.1700
ENERGY: 1200000 1.1678 2.1914 2.5673 0.0000 -10664.9866 1368.5797 0.0000 0.0000 1783.9396 -7506.5408 301.7544 -9290.4804 -7543.1021 298.0723 -624.4868 -589.3530 30737.2165 -223.3238 -170.0577
ENERGY: 1500000 2.7350 4.1104 4.3689 0.0000 -10688.6437 1363.4362 0.0000 0.0000 1790.5901 -7523.4030 302.8793 -9313.9932 -7548.9511 298.0165 -749.6578 -711.0053 30810.1974 -216.7201 -163.7665
TCL: Running FEP window  12: Lambda1 0.5499999999999999 Lambda2 0.6    [dLambda 0.050000000000000044]
TCL: Setting parameter firsttimestep to 0
TCL: Setting parameter alchLambda to 0.5499999999999999
Info: NONBONDED TABLE R-SQUARED SPACING: 0.0625
Info: NONBONDED TABLE SIZE: 705 POINTS
TCL: Setting parameter alchLambda2 to 0.6
Info: NONBONDED TABLE R-SQUARED SPACING: 0.0625
Info: NONBONDED TABLE SIZE: 705 POINTS
TCL: Running for 1500000 steps
ETITLE: TS BOND ANGLE DIHED IMPRP ELECT VDW BOUNDARY MISC KINETIC TOTAL TEMP POTENTIAL TOTALAVG TEMPAVG PRESSURE GPRESSURE VOLUME PRESSAVG GPRESSAVG
ENERGY: 0 2.7350 4.1104 4.3689 0.0000 -10688.5092 1363.3888 0.0000 0.0000 1789.6852 -7524.2207 302.7262 -9313.9060 -7524.2207 302.7262 -775.1114 -705.3701 30810.1974 -775.1114 -705.3701
ENERGY: 300000 2.4000 2.1578 2.8968 0.0000 -10707.8541 1399.5395 0.0000 0.0000 1767.7352 -7533.1247 299.0134 -9300.8600 -7541.8893 298.5209 -142.9432 -49.3374 30198.3208 -313.6814 -240.6042
ENERGY: 600000 1.7055 2.4403 3.4751 0.0000 -10860.1808 1492.2616 0.0000 0.0000 1808.3592 -7551.9391 305.8850 -9360.2983 -7548.9445 301.3843 321.5640 350.7304 30458.7684 -64.7358 9.7056
ENERGY: 900000 4.6049 3.8322 3.2684 0.0000 -10756.5003 1438.2041 0.0000 0.0000 1799.2538 -7507.3369 304.3448 -9306.5907 -7547.7299 301.4398 -118.9868 -83.2382 30497.6693 -54.7867 16.1079
ENERGY: 1200000 1.6874 6.0085 2.9309 0.0000 -10808.2037 1484.8024 0.0000 0.0000 1782.1210 -7530.6535 301.4467 -9312.7745 -7547.8668 300.3764 221.1834 304.9843 30462.7129 -96.4941 -24.1627
ENERGY: 1500000 4.1446 2.0849 1.4925 0.0000 -10766.8319 1446.4066 0.0000 0.0000 1791.6617 -7521.0415 303.0606 -9312.7033 -7543.8932 301.1332 203.1603 279.8417 30409.3547 -132.6929 -59.3726
TCL: Running FEP window  13: Lambda1 0.6    Lambda2 0.65   [dLambda 0.050000000000000044]
TCL: Setting parameter firsttimestep to 0
TCL: Setting parameter alchLambda to 0.6
Info: NONBONDED TABLE R-SQUARED SPACING: 0.0625
Info: NONBONDED TABLE SIZE: 705 POINTS
TCL: Setting parameter alchLambda2 to 0.65
Info: NONBONDED TABLE R-SQUARED SPACING: 0.0625
Info: NONBONDED TABLE SIZE: 705 POINTS
TCL: Running for 1500000 steps
ETITLE: TS BOND ANGLE DIHED IMPRP ELECT VDW BOUNDARY MISC KINETIC TOTAL TEMP POTENTIAL TOTALAVG TEMPAVG PRESSURE GPRESSURE VOLUME PRESSAVG GPRESSAVG
ENERGY: 0 4.1446 2.0849 1.4925 0.0000 -10766.9840 1446.7363 0.0000 0.0000 1790.7577 -7521.7679 302.9077 -9312.5256 -7521.7679 302.9077 205.4502 292.1342 30409.3547 205.4502 292.1342
ENERGY: 300000 2.5930 3.8684 3.7630 0.0000 -10752.3509 1522.6818 0.0000 0.0000 1699.2340 -7520.2107 287.4264 -9219.4447 -7531.9127 296.1510 866.1415 942.4690 30292.8509 220.7405 291.7743
ENERGY: 600000 1.8080 2.9761 5.4395 0.0000 -10709.4560 1421.7079 0.0000 0.0000 1807.8735 -7469.6510 305.8028 -9277.5245 -7527.8354 298.6229 27.1265 47.8393 30510.1531 169.9856 228.6336
ENERGY: 900000 2.6830 1.5832 3.7261 0.0000 -10955.9245 1611.5308 0.0000 0.0000 1748.4522 -7587.9491 295.7517 -9336.4013 -7529.1914 300.6598 1167.0260 1239.5170 30526.9855 345.5764 411.1563
ENERGY: 1200000 1.5806 4.0721 4.4365 0.0000 -10765.0482 1382.1763 0.0000 0.0000 1754.3014 -7618.4814 296.7410 -9372.7828 -7546.8623 299.4896 -432.6441 -390.6673 30341.4977 246.6781 309.8072
ENERGY: 1500000 3.6236 3.8939 1.9305 0.0000 -10834.1805 1483.4798 0.0000 0.0000 1822.2441 -7519.0086 308.2336 -9341.2527 -7540.6330 300.8981 281.8855 437.2897 30146.8812 169.6620 236.9611
TCL: Running FEP window  14: Lambda1 0.65   Lambda2 0.7000000000000001 [dLambda 0.050000000000000044]
TCL: Setting parameter firsttimestep to 0
TCL: Setting parameter alchLambda to 0.65
Info: NONBONDED TABLE R-SQUARED SPACING: 0.0625
Info: NONBONDED TABLE SIZE: 705 POINTS
TCL: Setting parameter alchLambda2 to 0.7000000000000001
Info: NONBONDED TABLE R-SQUARED SPACING: 0.0625
Info: NONBONDED TABLE SIZE: 705 POINTS
TCL: Running for 1500000 steps
ETITLE: TS BOND ANGLE DIHED IMPRP ELECT VDW BOUNDARY MISC KINETIC TOTAL TEMP POTENTIAL TOTALAVG TEMPAVG PRESSURE GPRESSURE VOLUME PRESSAVG GPRESSAVG
ENERGY: 0 3.6236 3.8939 1.9305 0.0000 -10834.1292 1483.5514 0.0000 0.0000 1821.3519 -7519.7779 308.0827 -9341.1298 -7519.7779 308.0827 370.2981 449.2232 30146.8812 370.2981 449.2232
ENERGY: 300000 2.6827 2.8027 2.0761 0.0000 -10948.3104 1515.5348 0.0000 0.0000 1754.0114 -7671.2028 296.6920 -9425.2142 -7591.2447 297.5554 255.1773 315.1513 30418.5067 298.6824 366.6367
ENERGY: 600000 0.9054 2.4300 2.1171 0.0000 -10725.4111 1405.8764 0.0000 0.0000 1775.3689 -7538.7133 300.3046 -9314.0822 -7577.6165 297.6919 -380.2406 -228.3290 30598.1083 127.3116 205.6403
ENERGY: 900000 1.7053 1.2282 3.7412 0.0000 -10662.6135 1365.3648 0.0000 0.0000 1818.9993 -7471.5748 307.6847 -9290.5741 -7562.9442 299.6055 -558.4885 -440.1782 30634.2786 -46.5753 33.2436
ENERGY: 1200000 1.7493 1.7385 3.3344 0.0000 -10711.7667 1417.9650 0.0000 0.0000 1773.4076 -7513.5719 299.9729 -9286.9794 -7556.0119 299.5300 -54.5012 -60.5360 30737.0414 -22.0060 48.2193
ENERGY: 1500000 1.7885 2.8422 4.0290 0.0000 -10846.5875 1457.2173 0.0000 0.0000 1789.0333 -7591.6772 302.6160 -9380.7105 -7549.5860 300.1522 -151.5349 -64.1388 30718.3685 -46.2131 20.9453
TCL: Running FEP window  15: Lambda1 0.7000000000000001 Lambda2 0.7500000000000001 [dLambda 0.050000000000000044]
TCL: Setting parameter firsttimestep to 0
TCL: Setting parameter alchLambda to 0.7000000000000001
Info: NONBONDED TABLE R-SQUARED SPACING: 0.0625
Info: NONBONDED TABLE SIZE: 705 POINTS
TCL: Setting parameter alchLambda2 to 0.7500000000000001
Info: NONBONDED TABLE R-SQUARED SPACING: 0.0625
Info: NONBONDED TABLE SIZE: 705 POINTS
TCL: Running for 1500000 steps
ETITLE: TS BOND ANGLE DIHED IMPRP ELECT VDW BOUNDARY MISC KINETIC TOTAL TEMP POTENTIAL TOTALAVG TEMPAVG PRESSURE GPRESSURE VOLUME PRESSAVG GPRESSAVG
ENERGY: 0 1.7885 2.8422 4.0290 0.0000 -10846.7649 1456.8499 0.0000 0.0000 1788.1516 -7593.1036 302.4668 -9381.2552 -7593.1036 302.4668 -149.6532 -57.5577 30718.3685 -149.6532 -57.5577
ENERGY: 300000 2.0958 5.6856 3.0191 0.0000 -10746.0835 1375.3982 0.0000 0.0000 1832.1948 -7527.6901 309.9168 -9359.8849 -7523.9938 304.1951 -349.0965 -327.7396 30150.8438 -405.7589 -331.9753
ENERGY: 600000 2.1469 2.9798 3.1144 0.0000 -10745.3986 1423.9470 0.0000 0.0000 1713.7986 -7599.4119 289.8900 -9313.2105 -7552.6810 300.7912 -318.1523 -262.6032 31009.4494 -240.5641 -181.9556
ENERGY: 900000 3.5369 2.5823 1.5752 0.0000 -10810.2621 1505.2867 0.0000 0.0000 1762.4776 -7534.8033 298.1241 -9297.2809 -7558.2013 299.3660 462.0828 498.3226 30612.0095 -213.5492 -158.9030
ENERGY: 1200000 1.8331 2.3865 3.5930 0.0000 -10887.7385 1494.0875 0.0000 0.0000 1765.6312 -7620.2072 298.6575 -9385.8384 -7566.5210 299.0366 -6.4774 61.1460 30717.5643 -179.7099 -124.4718
ENERGY: 1500000 1.1026 1.4970 1.4763 0.0000 -10818.6779 1472.4368 0.0000 0.0000 1768.3978 -7573.7674 299.1255 -9342.1652 -7566.6802 298.9861 141.4476 193.1369 30617.9978 -110.3642 -50.3300
TCL: Running FEP window  16: Lambda1 0.7500000000000001 Lambda2 0.8000000000000002 [dLambda 0.050000000000000044]
TCL: Setting parameter firsttimestep to 0
TCL: Setting parameter alchLambda to 0.7500000000000001
Info: NONBONDED TABLE R-SQUARED SPACING: 0.0625
Info: NONBONDED TABLE SIZE: 705 POINTS
TCL: Setting parameter alchLambda2 to 0.8000000000000002
Info: NONBONDED TABLE R-SQUARED SPACING: 0.0625
Info: NONBONDED TABLE SIZE: 705 POINTS
TCL: Running for 1500000 steps
ETITLE: TS BOND ANGLE DIHED IMPRP ELECT VDW BOUNDARY MISC KINETIC TOTAL TEMP POTENTIAL TOTALAVG TEMPAVG PRESSURE GPRESSURE VOLUME PRESSAVG GPRESSAVG
ENERGY: 0 1.1026 1.4970 1.4763 0.0000 -10819.3973 1472.3583 0.0000 0.0000 1767.5756 -7575.3875 298.9864 -9342.9631 -7575.3875 298.9864 113.9011 199.9036 30617.9978 113.9011 199.9036
ENERGY: 300000 3.9874 3.6580 2.0048 0.0000 -10763.0835 1462.1141 0.0000 0.0000 1695.5124 -7595.8069 286.7969 -9291.3193 -7542.5370 295.6953 -18.1321 26.4227 30686.9971 -153.6960 -91.7380
ENERGY: 600000 4.6305 7.8323 1.4942 0.0000 -10737.2155 1394.1328 0.0000 0.0000 1734.3364 -7594.7893 293.3640 -9329.1257 -7543.9444 295.9821 -631.6495 -581.2398 30752.3167 -159.0955 -91.9868
ENERGY: 900000 4.0324 2.8465 3.2700 0.0000 -10722.1944 1378.9646 0.0000 0.0000 1793.8487 -7539.2321 303.4305 -9333.0808 -7541.0684 297.1487 -534.6458 -448.6943 30474.0478 -116.1216 -58.3926
ENERGY: 1200000 1.7919 3.5409 4.6566 0.0000 -10695.1984 1370.6833 0.0000 0.0000 1747.6669 -7566.8588 295.6188 -9314.5257 -7539.6996 298.2503 -731.9617 -579.1432 30671.5446 -182.0802 -115.9536
ENERGY: 1500000 0.4609 4.1630 5.3087 0.0000 -10940.0845 1527.1829 0.0000 0.0000 1778.7619 -7624.2071 300.8786 -9402.9690 -7542.0973 299.2039 494.1646 523.2293 30292.7425 -141.9910 -75.1457
TCL: Running FEP window  17: Lambda1 0.8000000000000002 Lambda2 0.8500000000000002 [dLambda 0.050000000000000044]
TCL: Setting parameter firsttimestep to 0
TCL: Setting parameter alchLambda to 0.8000000000000002
Info: NONBONDED TABLE R-SQUARED SPACING: 0.0625
Info: NONBONDED TABLE SIZE: 705 POINTS
TCL: Setting parameter alchLambda2 to 0.8500000000000002
Info: NONBONDED TABLE R-SQUARED SPACING: 0.0625
Info: NONBONDED TABLE SIZE: 705 POINTS
TCL: Running for 1500000 steps
ETITLE: TS BOND ANGLE DIHED IMPRP ELECT VDW BOUNDARY MISC KINETIC TOTAL TEMP POTENTIAL TOTALAVG TEMPAVG PRESSURE GPRESSURE VOLUME PRESSAVG GPRESSAVG
ENERGY: 0 0.4609 4.1630 5.3087 0.0000 -10940.6628 1526.5374 0.0000 0.0000 1777.8872 -7626.3057 300.7306 -9404.1929 -7626.3057 300.7306 439.2251 524.5390 30292.7425 439.2251 524.5390
ENERGY: 300000 3.1685 2.8376 1.1652 0.0000 -10712.5439 1430.6562 0.0000 0.0000 1734.2402 -7540.4761 293.3477 -9274.7163 -7567.7830 297.6595 36.5067 68.6726 30457.4076 262.7637 314.6615
ENERGY: 600000 2.1585 1.8932 1.7354 0.0000 -10750.0554 1418.9170 0.0000 0.0000 1769.3488 -7556.0025 299.2863 -9325.3514 -7549.6437 298.6338 -266.9701 -207.5562 30542.6370 120.6879 179.8139
ENERGY: 900000 0.1757 2.9837 2.4071 0.0000 -10848.4346 1501.3343 0.0000 0.0000 1817.6658 -7523.8680 307.4592 -9341.5337 -7556.5259 298.8624 565.2066 575.3021 30363.4194 139.8160 193.5412
ENERGY: 1200000 1.8478 2.3617 5.8282 0.0000 -10730.0185 1450.8633 0.0000 0.0000 1848.8219 -7420.2957 312.7292 -9269.1176 -7546.1360 299.5601 417.1014 410.5033 30299.4921 159.0225 206.8904
ENERGY: 1500000 1.5833 5.3089 7.6256 0.0000 -10757.4714 1480.5546 0.0000 0.0000 1773.7194 -7488.6796 300.0256 -9262.3990 -7544.0572 299.6606 463.8735 481.2888 30649.6344 94.5085 141.3459
TCL: Running FEP window  18: Lambda1 0.8500000000000002 Lambda2 0.9000000000000002 [dLambda 0.050000000000000044]
TCL: Setting parameter firsttimestep to 0
TCL: Setting parameter alchLambda to 0.8500000000000002
Info: NONBONDED TABLE R-SQUARED SPACING: 0.0625
Info: NONBONDED TABLE SIZE: 705 POINTS
TCL: Setting parameter alchLambda2 to 0.9000000000000002
Info: NONBONDED TABLE R-SQUARED SPACING: 0.0625
Info: NONBONDED TABLE SIZE: 705 POINTS
TCL: Running for 1500000 steps
ETITLE: TS BOND ANGLE DIHED IMPRP ELECT VDW BOUNDARY MISC KINETIC TOTAL TEMP POTENTIAL TOTALAVG TEMPAVG PRESSURE GPRESSURE VOLUME PRESSAVG GPRESSAVG
ENERGY: 0 1.5833 5.3089 7.6256 0.0000 -10758.8818 1481.2949 0.0000 0.0000 1772.8342 -7490.2349 299.8759 -9263.0691 -7490.2349 299.8759 418.5930 499.7962 30649.6344 418.5930 499.7962
ENERGY: 300000 0.7459 4.4716 2.2786 0.0000 -10953.3969 1557.6586 0.0000 0.0000 1767.0893 -7621.1528 298.9041 -9388.2421 -7609.6120 294.1578 900.3855 995.7103 30249.1865 346.9167 412.6339
ENERGY: 600000 1.7256 3.3240 3.6841 0.0000 -10720.4207 1423.2061 0.0000 0.0000 1806.0712 -7482.4098 305.4979 -9288.4810 -7573.2821 297.2708 -172.7637 -70.0663 30626.6117 248.1802 300.9254
ENERGY: 900000 3.8918 2.6920 0.7161 0.0000 -10834.0997 1432.3947 0.0000 0.0000 1742.8453 -7651.5598 294.8033 -9394.4052 -7578.0523 297.6385 -257.5894 -187.3761 30544.4350 104.7691 169.6265
ENERGY: 1200000 1.1853 2.9017 2.2889 0.0000 -10809.5259 1482.6369 0.0000 0.0000 1770.6963 -7549.8169 299.5142 -9320.5131 -7578.0914 298.5647 272.9915 341.8002 30515.3799 246.3324 303.5931
ENERGY: 1500000 2.8304 1.3057 2.4882 0.0000 -10826.6490 1449.1407 0.0000 0.0000 1770.0508 -7600.8333 299.4051 -9370.8841 -7564.2568 299.6295 -440.0561 -417.2537 30905.0639 217.4337 270.4077
TCL: Running FEP window  19: Lambda1 0.9000000000000002 Lambda2 0.9500000000000003 [dLambda 0.050000000000000044]
TCL: Setting parameter firsttimestep to 0
TCL: Setting parameter alchLambda to 0.9000000000000002
Info: NONBONDED TABLE R-SQUARED SPACING: 0.0625
Info: NONBONDED TABLE SIZE: 705 POINTS
TCL: Setting parameter alchLambda2 to 0.9500000000000003
Info: NONBONDED TABLE R-SQUARED SPACING: 0.0625
Info: NONBONDED TABLE SIZE: 705 POINTS
TCL: Running for 1500000 steps
ETITLE: TS BOND ANGLE DIHED IMPRP ELECT VDW BOUNDARY MISC KINETIC TOTAL TEMP POTENTIAL TOTALAVG TEMPAVG PRESSURE GPRESSURE VOLUME PRESSAVG GPRESSAVG
ENERGY: 0 2.8304 1.3057 2.4882 0.0000 -10827.1511 1449.1324 0.0000 0.0000 1769.1613 -7602.2331 299.2546 -9371.3944 -7602.2331 299.2546 -473.1208 -405.4762 30905.0639 -473.1208 -405.4762
ENERGY: 300000 2.0794 2.8389 2.4824 0.0000 -10732.3989 1374.1505 0.0000 0.0000 1818.5758 -7532.2720 307.6131 -9350.8478 -7575.3351 301.5045 -801.1759 -701.3297 31054.0241 -532.9636 -449.7166
ENERGY: 600000 1.9131 2.6786 3.3616 0.0000 -10951.0079 1536.5051 0.0000 0.0000 1743.4407 -7663.1088 294.9040 -9406.5496 -7579.8148 300.4408 327.4083 376.9515 30614.8498 -180.0749 -98.8212
ENERGY: 900000 3.2895 1.9987 1.8235 0.0000 -10813.0278 1497.0803 0.0000 0.0000 1799.8376 -7508.9981 304.4435 -9308.8357 -7580.9761 301.0366 520.1034 586.0262 30514.0353 -118.1345 -44.4754
ENERGY: 1200000 1.6434 2.7876 2.9450 0.0000 -10805.0359 1414.8105 0.0000 0.0000 1727.6819 -7655.1674 292.2384 -9382.8494 -7586.9079 299.9558 -491.1155 -410.6398 30535.6114 -280.9150 -210.4786
ENERGY: 1500000 1.6479 3.1625 3.4072 0.0000 -10728.6536 1371.4073 0.0000 0.0000 1774.7916 -7574.2371 300.2070 -9349.0287 -7585.5222 300.1334 -661.9546 -616.3076 30704.2144 -243.7737 -175.1342
TCL: Running FEP window  20: Lambda1 0.9500000000000003 Lambda2 1.0    [dLambda 0.04999999999999971]
TCL: Setting parameter firsttimestep to 0
TCL: Setting parameter alchLambda to 0.9500000000000003
Info: NONBONDED TABLE R-SQUARED SPACING: 0.0625
Info: NONBONDED TABLE SIZE: 705 POINTS
TCL: Setting parameter alchLambda2 to 1.0
Info: NONBONDED TABLE R-SQUARED SPACING: 0.0625
Info: NONBONDED TABLE SIZE: 705 POINTS
TCL: Running for 1500000 steps
ETITLE: TS BOND ANGLE DIHED IMPRP ELECT VDW BOUNDARY MISC KINETIC TOTAL TEMP POTENTIAL TOTALAVG TEMPAVG PRESSURE GPRESSURE VOLUME PRESSAVG GPRESSAVG
ENERGY: 0 1.6479 3.1626 3.4072 0.0000 -10730.1730 1372.3503 0.0000 0.0000 1773.9009 -7575.7042 300.0563 -9349.6051 -7575.7042 300.0563 -685.3781 -598.0049 30704.2144 -685.3781 -598.0049
ENERGY: 300000 3.0547 0.6796 1.9738 0.0000 -10820.7427 1438.8390 0.0000 0.0000 1797.3914 -7578.8043 304.0297 -9376.1956 -7551.1553 300.8733 -199.3463 -97.3930 30676.1313 -126.2451 -65.0083
ENERGY: 600000 2.2896 3.7101 1.6903 0.0000 -10915.2605 1547.7528 0.0000 0.0000 1800.2813 -7559.5365 304.5186 -9359.8178 -7549.5546 300.7484 742.9412 785.6179 30292.5963 84.2282 147.8880
ENERGY: 900000 4.5222 3.0869 1.3336 0.0000 -10764.6620 1486.3834 0.0000 0.0000 1803.3290 -7466.0070 305.0341 -9269.3360 -7540.2250 302.1453 429.8233 520.7546 30874.9839 45.7287 102.1158
ENERGY: 1200000 0.7569 1.4143 5.3289 0.0000 -10520.4282 1365.0076 0.0000 0.0000 1804.8234 -7343.0972 305.2869 -9147.9206 -7517.8325 302.0071 65.4660 111.1946 30661.6959 6.6825 62.0660
ENERGY: 1500000 2.6055 6.8480 6.3288 0.0000 -10607.6463 1317.9675 0.0000 0.0000 1797.6560 -7476.2405 304.0745 -9273.8965 -7532.1010 301.3131 -847.5328 -656.7393 30828.4591 -62.8906 9.6901
TCL: Exiting due to exit command.
