Info: SIMULATION PARAMETERS:
Info: TIMESTEP               2
Info: NUMBER OF STEPS        0
Info: STEPS PER CYCLE        10
Info: PERIODIC CELL BASIS 1  30.2205 0 0
Info: PERIODIC CELL BASIS 2  0 30.5027 0
Info: PERIODIC CELL BASIS 3  0 0 33.1158
Info: PERIODIC CELL CENTER   0 0 0
Info: WRAPPING WATERS AROUND PERIODIC BOUNDARIES ON OUTPUT.
Info: WRAPPING ALL CLUSTERS AROUND PERIODIC BOUNDARIES ON OUTPUT.
Info: FIRST LDB TIMESTEP     50
Info: LAST LDB TIMESTEP     -1
Info: HOM BACKGROUND SCALING 1
Info: PME BACKGROUND SCALING 1
Info: MIN ATOMS PER PATCH    40
Info: EMPTY PATCH LOAD       40 ATOMS
Info: VELOCITY FILE          mobley_1963873_equil.vel
Info: CENTER OF MASS MOVING INITIALLY? NO
Info: DIELECTRIC             1
Info: EXCLUDE                SCALED ONE-FOUR
Info: 1-4 ELECTROSTATICS SCALED BY 0.833333
Info: MODIFIED 1-4 VDW PARAMETERS WILL BE USED
Info: DCD FILENAME           mobley_1963873_prod.dcd
Info: DCD FREQUENCY          100000
Info: DCD FIRST STEP         100000
Info: DCD FILE WILL CONTAIN UNIT CELL DATA
Info: XST FILENAME           mobley_1963873_prod.xst
Info: XST FREQUENCY          100000
Info: NO VELOCITY DCD OUTPUT
Info: NO FORCE DCD OUTPUT
Info: OUTPUT FILENAME        mobley_1963873_prod
Info: BINARY OUTPUT FILES WILL BE USED
Info: RESTART FILENAME       mobley_1963873_prod.restart
Info: RESTART FREQUENCY      100000
Info: BINARY RESTART FILES WILL BE USED
Info: CUTOFF                 9
Info: PAIRLIST DISTANCE      11
Info: PAIRLIST SHRINK RATE   0.01
Info: PAIRLIST GROW RATE     0.01
Info: PAIRLIST TRIGGER       0.3
Info: PAIRLISTS PER CYCLE    2
Info: PAIRLISTS ENABLED
Info: MARGIN                 2
Info: HYDROGEN GROUP CUTOFF  2.5
Info: PATCH DIMENSION        15.5
Info: ENERGY OUTPUT STEPS    100000
Info: ENERGY EVALUATION STEPS    100000
Info: OUTPUT ENERGY PRECISION 4
Info: CROSSTERM ENERGY INCLUDED IN DIHEDRAL
Info: TIMING OUTPUT STEPS    1000000
Info: PRESSURE OUTPUT STEPS  100000
Info: ALCHEMICAL FEP ON
Info: FEP CURRENT LAMBDA VALUE     1
Info: FEP COMPARISON LAMBDA VALUE  0.95
Info: FEP INTRA-ALCHEMICAL NON-BONDED INTERACTIONS WILL BE RETAINED
Info: FEP INTRA-ALCHEMICAL BONDED INTERACTIONS WILL BE RETAINED
Info: FEP VDW SHIFTING COEFFICIENT 5
Info: FEP ELEC. ACTIVE FOR ANNIHILATED PARTICLES BETWEEN LAMBDA = 0 AND LAMBDA = 0.5
Info: FEP ELEC. ACTIVE FOR EXNIHILATED PARTICLES BETWEEN LAMBDA = 0.5 AND LAMBDA = 1
Info: FEP VDW ACTIVE FOR ANNIHILATED PARTICLES BETWEEN LAMBDA = 0 AND LAMBDA = 1
Info: FEP VDW ACTIVE FOR EXNIHILATED PARTICLES BETWEEN LAMBDA = 0 AND LAMBDA = 1
Info: FEP BOND ACTIVE FOR ANNIHILATED PARTICLES BETWEEN LAMBDA = 1 AND LAMBDA = 1
Info: FEP BOND ACTIVE FOR EXNIHILATED PARTICLES BETWEEN LAMBDA = 0 AND LAMBDA = 0
Info: LANGEVIN DYNAMICS ACTIVE
Info: LANGEVIN TEMPERATURE   300
Info: LANGEVIN USING BBK INTEGRATOR
Info: LANGEVIN DAMPING COEFFICIENT IS 1 INVERSE PS
Info: LANGEVIN DYNAMICS APPLIED TO HYDROGENS
Info: LANGEVIN PISTON PRESSURE CONTROL ACTIVE
Info:        TARGET PRESSURE IS 1.01325 BAR
Info:     OSCILLATION PERIOD IS 50 FS
Info:             DECAY TIME IS 25 FS
Info:     PISTON TEMPERATURE IS 300 K
Info:       PRESSURE CONTROL IS GROUP-BASED
Info:    INITIAL STRAIN RATE IS -0.000233813 -0.000233813 -0.000233813
Info:       CELL FLUCTUATION IS ISOTROPIC
Info: PARTICLE MESH EWALD (PME) ACTIVE
Info: PME TOLERANCE               1e-06
Info: PME EWALD COEFFICIENT       0.348832
Info: PME INTERPOLATION ORDER     4
Info: PME GRID DIMENSIONS         32 32 36
Info: PME MAXIMUM GRID SPACING    1
Info: PME CALCULATION WILL BE PERFORMED ON GPU
Info: FULL ELECTROSTATIC EVALUATION FREQUENCY      2
Info: USING VERLET I (r-RESPA) MTS SCHEME.
Info: C1 SPLITTING OF LONG RANGE ELECTROSTATICS
Info: PLACING ATOMS IN PATCHES BY HYDROGEN GROUPS
Info: RIGID BONDS TO HYDROGEN : ALL
Info:         ERROR TOLERANCE : 1e-08
Info:          MAX ITERATIONS : 100
Info: RIGID WATER USING SETTLE ALGORITHM
Info: RANDOM NUMBER SEED     1742554046
Info: USE HYDROGEN BONDS?    NO
Info: Using AMBER format force field!
Info: AMBER PARM FILE        mobley_1963873.prmtop
Info: COORDINATE PDB         mobley_1963873.pdb
Info: Exclusions will be read from PARM file!
Info: SCNB (VDW SCALING)     2
Info: USING ARITHMETIC MEAN TO COMBINE L-J SIGMA PARAMETERS
Info: BINARY COORDINATES     mobley_1963873_equil.coor
Info: SUMMARY OF PARAMETERS:
Info: 9 BONDS
Info: 10 ANGLES
Info:   10 HARMONIC
Info:   0 COSINE-BASED
Info: 11 DIHEDRAL
Info: 0 IMPROPER
Info: 0 CROSSTERM
Info: 0 VDW
Info: 45 VDW_PAIRS
Info: 0 NBTHOLE_PAIRS
Info: To read alchdata from file: mobley_1963873.pdb
Info: To read alchflag data from column: 5
Info: STRUCTURE SUMMARY:
Info: 2946 ATOMS
Info: 2945 BONDS
Info: 18 ANGLES
Info: 24 DIHEDRALS
Info: 0 IMPROPERS
Info: 0 CROSSTERMS
Info: 2979 EXCLUSIONS
Info: 2941 RIGID BONDS
Info: ALCH: 0 ATOMS TO DISAPPEAR IN FINAL STATE
Info: ALCH: 12 ATOMS TO APPEAR IN FINAL STATE
Info: 5897 DEGREES OF FREEDOM
Info: 983 HYDROGEN GROUPS
Info: 4 ATOMS IN LARGEST HYDROGEN GROUP
Info: 983 MIGRATION GROUPS
Info: 4 ATOMS IN LARGEST MIGRATION GROUP
Info: TOTAL MASS = 17692.7 amu
Info: TOTAL CHARGE = -0.000199951 e
Info: MASS DENSITY = 0.962453 g/cm^3
Info: ATOM DENSITY = 0.0965068 atoms/A^3
Info: ADDED 0 IMPLICIT EXCLUSIONS
Info: NONBONDED TABLE R-SQUARED SPACING: 0.0625
Info: NONBONDED TABLE SIZE: 705 POINTS
Info: REMOVING COM VELOCITY -0.0609257 0.0290652 0.143678
Info: Use 3D box decompostion in PME FFT.
Info: Updated CUDA force table with 4096 elements.
Info: Updated CUDA LJ table with 9 x 9 elements.
Info: Found 15 unique exclusion lists needing 24 bytes
TCL: Running for 1500000 steps
ETITLE: TS BOND ANGLE DIHED IMPRP ELECT VDW BOUNDARY MISC KINETIC TOTAL TEMP POTENTIAL TOTALAVG TEMPAVG PRESSURE GPRESSURE VOLUME PRESSAVG GPRESSAVG
ENERGY: 0 0.5739 6.8616 22.7221 0.0000 -10602.8200 1350.8770 0.0000 0.0000 1789.5403 -7432.2452 305.4223 -9221.7855 -7432.2452 305.4223 -596.9691 -513.0491 30526.3434 -596.9691 -513.0491
ENERGY: 300000 0.8453 3.9801 22.0906 0.0000 -10776.4673 1466.6743 0.0000 0.0000 1780.4779 -7502.3990 303.8756 -9282.8769 -7473.2076 303.5313 157.3563 212.9307 30446.3415 -153.0782 -101.9781
ENERGY: 600000 0.9956 5.7372 20.6479 0.0000 -10564.0108 1329.9877 0.0000 0.0000 1787.1436 -7419.4988 305.0133 -9206.6424 -7496.1407 303.2801 -621.5454 -511.5235 30483.4975 -276.7831 -217.1378
ENERGY: 900000 1.3368 5.3750 22.5004 0.0000 -10704.8761 1405.2877 0.0000 0.0000 1805.6430 -7464.7332 308.1706 -9270.3761 -7491.3580 302.4647 -504.2537 -421.6174 30910.2916 -258.8354 -206.0404
ENERGY: 1200000 2.0135 5.4983 24.9735 0.0000 -10623.7415 1289.8485 0.0000 0.0000 1738.5487 -7562.8589 296.7195 -9301.4077 -7490.7038 302.3864 -1313.0806 -1216.4118 30496.9398 -259.1299 -203.5063
ENERGY: 1500000 1.0831 5.7611 21.8679 0.0000 -10662.4042 1390.9672 0.0000 0.0000 1735.4719 -7507.2530 296.1944 -9242.7249 -7500.9003 300.5697 -456.1445 -338.2869 30546.5918 -204.0972 -139.6972
TCL: Running FEP window   2: Lambda1 0.95   Lambda2 0.8999999999999999 [dLambda -0.050000000000000044]
TCL: Setting parameter firsttimestep to 0
TCL: Setting parameter alchLambda to 0.95
Info: NONBONDED TABLE R-SQUARED SPACING: 0.0625
Info: NONBONDED TABLE SIZE: 705 POINTS
TCL: Setting parameter alchLambda2 to 0.8999999999999999
Info: NONBONDED TABLE R-SQUARED SPACING: 0.0625
Info: NONBONDED TABLE SIZE: 705 POINTS
TCL: Running for 1500000 steps
ETITLE: TS BOND ANGLE DIHED IMPRP ELECT VDW BOUNDARY MISC KINETIC TOTAL TEMP POTENTIAL TOTALAVG TEMPAVG PRESSURE GPRESSURE VOLUME PRESSAVG GPRESSAVG
ENERGY: 0 1.0831 5.7611 21.8679 0.0000 -10660.2352 1389.5306 0.0000 0.0000 1734.6045 -7507.3880 296.0464 -9241.9925 -7507.3880 296.0464 -450.0961 -363.4798 30546.5918 -450.0961 -363.4798
ENERGY: 300000 1.0911 3.4817 22.9521 0.0000 -10658.0042 1369.7386 0.0000 0.0000 1825.1567 -7435.5840 311.5010 -9260.7407 -7458.5971 303.5736 -359.8692 -365.1029 30307.6485 -244.4775 -185.1429
ENERGY: 600000 0.5696 5.2857 24.8908 0.0000 -10621.4519 1356.7428 0.0000 0.0000 1733.4420 -7500.5210 295.8480 -9233.9630 -7479.5797 301.8983 -659.5311 -704.3379 30642.2622 -286.5192 -248.1575
ENERGY: 900000 1.5283 3.6571 22.4209 0.0000 -10777.0602 1470.2549 0.0000 0.0000 1774.8927 -7504.3063 302.9224 -9279.1990 -7492.0744 301.0279 357.9308 414.2195 30072.6767 -181.3316 -138.8770
ENERGY: 1200000 1.0338 4.2600 25.7145 0.0000 -10727.3130 1430.3685 0.0000 0.0000 1821.4789 -7444.4573 310.8733 -9265.9362 -7495.9875 301.8013 -103.9955 -62.7291 30381.9130 -167.9457 -119.0217
ENERGY: 1500000 2.7740 3.2841 22.6423 0.0000 -10739.2880 1435.5075 0.0000 0.0000 1711.1328 -7563.9472 292.0404 -9275.0800 -7502.7316 300.6737 -263.3718 -202.6671 30777.7307 -167.7003 -117.8406
TCL: Running FEP window   3: Lambda1 0.8999999999999999 Lambda2 0.8499999999999999 [dLambda -0.050000000000000044]
TCL: Setting parameter firsttimestep to 0
TCL: Setting parameter alchLambda to 0.8999999999999999
Info: NONBONDED TABLE R-SQUARED SPACING: 0.0625
Info: NONBONDED TABLE SIZE: 705 POINTS
TCL: Setting parameter alchLambda2 to 0.8499999999999999
Info: NONBONDED TABLE R-SQUARED SPACING: 0.0625
Info: NONBONDED TABLE SIZE: 705 POINTS
TCL: Running for 1500000 steps
ETITLE: TS BOND ANGLE DIHED IMPRP ELECT VDW BOUNDARY MISC KINETIC TOTAL TEMP POTENTIAL TOTALAVG TEMPAVG PRESSURE GPRESSURE VOLUME PRESSAVG GPRESSAVG
ENERGY: 0 2.7741 3.2841 22.6423 0.0000 -10737.0744 1435.1627 0.0000 0.0000 1710.3041 -7562.9071 291.8990 -9273.2112 -7562.9071 291.8990 -296.2870 -212.4742 30777.7307 -296.2870 -212.4742
ENERGY: 300000 0.6387 7.0336 26.3052 0.0000 -10640.0316 1389.8336 0.0000 0.0000 1752.8020 -7463.4185 299.1521 -9216.2205 -7532.0495 299.2574 -317.7790 -207.6384 30499.2384 -77.3482 18.2409
ENERGY: 600000 0.5769 5.8920 21.4559 0.0000 -10841.2421 1488.1768 0.0000 0.0000 1725.0427 -7600.0978 294.4144 -9325.1405 -7516.3058 299.0047 312.3886 404.6159 30048.2272 -68.9521 18.2261
ENERGY: 900000 1.5257 7.6375 21.7700 0.0000 -10846.3376 1461.2093 0.0000 0.0000 1739.2756 -7614.9197 296.8436 -9354.1952 -7520.8550 298.0891 -105.5585 -49.1265 30245.7827 -48.1667 29.2214
ENERGY: 1200000 0.9534 5.1630 21.6420 0.0000 -10880.5283 1558.0047 0.0000 0.0000 1750.2542 -7544.5110 298.7173 -9294.7651 -7515.0337 299.4997 1004.0971 992.0761 30207.6251 5.2236 73.4403
ENERGY: 1500000 0.3679 3.1760 21.8223 0.0000 -10642.2607 1373.5750 0.0000 0.0000 1758.7120 -7484.6075 300.1608 -9243.3195 -7512.1904 299.3226 -630.6164 -601.2644 30816.6347 17.9155 82.6290
TCL: Running FEP window   4: Lambda1 0.8499999999999999 Lambda2 0.7999999999999998 [dLambda -0.050000000000000044]
TCL: Setting parameter firsttimestep to 0
TCL: Setting parameter alchLambda to 0.8499999999999999
Info: NONBONDED TABLE R-SQUARED SPACING: 0.0625
Info: NONBONDED TABLE SIZE: 705 POINTS
TCL: Setting parameter alchLambda2 to 0.7999999999999998
Info: NONBONDED TABLE R-SQUARED SPACING: 0.0625
Info: NONBONDED TABLE SIZE: 705 POINTS
TCL: Running for 1500000 steps
ETITLE: TS BOND ANGLE DIHED IMPRP ELECT VDW BOUNDARY MISC KINETIC TOTAL TEMP POTENTIAL TOTALAVG TEMPAVG PRESSURE GPRESSURE VOLUME PRESSAVG GPRESSAVG
ENERGY: 0 0.3679 3.1760 21.8223 0.0000 -10640.3507 1373.4074 0.0000 0.0000 1757.8660 -7483.7111 300.0164 -9241.5771 -7483.7111 300.0164 -713.7351 -608.8193 30816.6347 -713.7351 -608.8193
ENERGY: 300000 0.4463 6.4976 22.6088 0.0000 -10508.0254 1307.7217 0.0000 0.0000 1755.4474 -7415.3036 299.6036 -9170.7510 -7508.0893 298.8578 -804.1913 -733.3277 30547.3925 -331.6361 -268.5713
ENERGY: 600000 0.8927 6.4484 22.4895 0.0000 -10744.6248 1403.5580 0.0000 0.0000 1743.5800 -7567.6562 297.5782 -9311.2362 -7509.3423 299.0666 -250.0173 -188.1556 30340.3136 -141.5467 -71.9256
ENERGY: 900000 1.1546 7.6176 21.8377 0.0000 -10614.4766 1380.4052 0.0000 0.0000 1766.1248 -7437.3367 301.4260 -9203.4615 -7497.4945 299.9248 -73.4835 -11.2346 29966.0935 -86.5031 -14.4802
ENERGY: 1200000 0.4658 9.1056 23.1794 0.0000 -10596.6800 1388.5014 0.0000 0.0000 1709.0848 -7466.3429 291.6909 -9175.4277 -7493.9779 299.2935 -49.6548 -71.1975 30277.0601 -43.3583 23.7375
ENERGY: 1500000 0.6461 6.7199 24.1769 0.0000 -10703.4177 1437.1135 0.0000 0.0000 1708.4138 -7526.3474 291.5764 -9234.7612 -7498.4163 298.8208 -52.6259 -15.1759 30453.4806 -40.4519 25.1754
TCL: Running FEP window   5: Lambda1 0.7999999999999998 Lambda2 0.7499999999999998 [dLambda -0.050000000000000044]
TCL: Setting parameter firsttimestep to 0
TCL: Setting parameter alchLambda to 0.7999999999999998
Info: NONBONDED TABLE R-SQUARED SPACING: 0.0625
Info: NONBONDED TABLE SIZE: 705 POINTS
TCL: Setting parameter alchLambda2 to 0.7499999999999998
Info: NONBONDED TABLE R-SQUARED SPACING: 0.0625
Info: NONBONDED TABLE SIZE: 705 POINTS
TCL: Running for 1500000 steps
ETITLE: TS BOND ANGLE DIHED IMPRP ELECT VDW BOUNDARY MISC KINETIC TOTAL TEMP POTENTIAL TOTALAVG TEMPAVG PRESSURE GPRESSURE VOLUME PRESSAVG GPRESSAVG
ENERGY: 0 0.6461 6.7199 24.1769 0.0000 -10701.6788 1436.8033 0.0000 0.0000 1707.5600 -7525.7725 291.4306 -9233.3325 -7525.7725 291.4306 -98.3848 -24.1622 30453.4806 -98.3848 -24.1622
ENERGY: 300000 0.4261 4.2650 21.5107 0.0000 -10661.1352 1383.5611 0.0000 0.0000 1778.3867 -7472.9856 303.5187 -9251.3723 -7499.1910 299.5966 -348.7432 -300.9583 30446.4124 -198.3380 -147.5762
ENERGY: 600000 1.3078 6.8580 22.6528 0.0000 -10658.8385 1419.5272 0.0000 0.0000 1743.5817 -7464.9110 297.5785 -9208.4928 -7482.8078 300.4125 -248.7646 -184.8461 30770.5209 -188.5899 -126.8647
ENERGY: 900000 1.1130 7.0587 23.0068 0.0000 -10821.0826 1478.7016 0.0000 0.0000 1832.3880 -7478.8144 312.7352 -9311.2025 -7475.2865 301.9956 301.9692 266.9687 30310.3577 -87.9036 -45.2051
ENERGY: 1200000 1.5488 5.2788 23.7612 0.0000 -10818.0170 1555.3067 0.0000 0.0000 1753.3810 -7478.7404 299.2510 -9232.1214 -7469.8008 301.7976 1149.0317 1216.2461 30102.6358 -88.7325 -44.0214
ENERGY: 1500000 0.5245 9.4339 22.3987 0.0000 -10818.8464 1487.5214 0.0000 0.0000 1744.2816 -7554.6863 297.6980 -9298.9679 -7480.0870 301.3131 126.7928 191.2846 30543.2371 -8.0304 37.8196
TCL: Running FEP window   6: Lambda1 0.7499999999999998 Lambda2 0.6999999999999997 [dLambda -0.050000000000000044]
TCL: Setting parameter firsttimestep to 0
TCL: Setting parameter alchLambda to 0.7499999999999998
Info: NONBONDED TABLE R-SQUARED SPACING: 0.0625
Info: NONBONDED TABLE SIZE: 705 POINTS
TCL: Setting parameter alchLambda2 to 0.6999999999999997
Info: NONBONDED TABLE R-SQUARED SPACING: 0.0625
Info: NONBONDED TABLE SIZE: 705 POINTS
TCL: Running for 1500000 steps
ETITLE: TS BOND ANGLE DIHED IMPRP ELECT VDW BOUNDARY MISC KINETIC TOTAL TEMP POTENTIAL TOTALAVG TEMPAVG PRESSURE GPRESSURE VOLUME PRESSAVG GPRESSAVG
ENERGY: 0 0.5245 9.4339 22.3987 0.0000 -10816.3349 1486.4185 0.0000 0.0000 1743.3679 -7554.1915 297.5420 -9297.5594 -7554.1915 297.5420 92.4250 176.6263 30543.2371 92.4250 176.6263
ENERGY: 300000 2.3096 2.9287 22.7573 0.0000 -10666.7379 1451.2262 0.0000 0.0000 1751.7277 -7435.7885 298.9688 -9187.5162 -7460.8777 301.7945 505.3136 575.4932 29917.4052 300.5126 407.1957
ENERGY: 600000 0.4358 3.4240 24.1863 0.0000 -10630.1651 1373.0144 0.0000 0.0000 1771.3491 -7457.7556 302.3176 -9229.1047 -7471.4051 301.1722 -272.5928 -215.1323 30240.5017 115.3040 194.4182
ENERGY: 900000 2.3200 4.7270 23.0009 0.0000 -10736.8494 1434.1845 0.0000 0.0000 1777.8470 -7494.7700 303.4266 -9272.6170 -7484.1183 300.2963 -3.9334 94.0112 30224.7270 35.2350 118.7534
ENERGY: 1200000 1.7363 10.7799 21.1288 0.0000 -10718.9138 1377.2746 0.0000 0.0000 1690.0493 -7617.9448 288.4421 -9307.9942 -7498.1859 298.7282 -839.6905 -778.3059 30442.8740 -26.0026 49.9185
ENERGY: 1500000 1.1840 5.1208 24.1994 0.0000 -10736.8230 1475.1649 0.0000 0.0000 1759.2869 -7471.8670 300.2589 -9231.1539 -7495.3534 298.4853 222.1143 244.6107 30486.1359 -4.2124 63.5666
TCL: Running FEP window   7: Lambda1 0.6999999999999997 Lambda2 0.6499999999999997 [dLambda -0.050000000000000044]
TCL: Setting parameter firsttimestep to 0
TCL: Setting parameter alchLambda to 0.6999999999999997
Info: NONBONDED TABLE R-SQUARED SPACING: 0.0625
Info: NONBONDED TABLE SIZE: 705 POINTS
TCL: Setting parameter alchLambda2 to 0.6499999999999997
Info: NONBONDED TABLE R-SQUARED SPACING: 0.0625
Info: NONBONDED TABLE SIZE: 705 POINTS
TCL: Running for 1500000 steps
ETITLE: TS BOND ANGLE DIHED IMPRP ELECT VDW BOUNDARY MISC KINETIC TOTAL TEMP POTENTIAL TOTALAVG TEMPAVG PRESSURE GPRESSURE VOLUME PRESSAVG GPRESSAVG
ENERGY: 0 1.1840 5.1208 24.1994 0.0000 -10735.0673 1475.4576 0.0000 0.0000 1758.4311 -7470.6744 300.1129 -9229.1055 -7470.6744 300.1129 158.1167 244.4051 30486.1359 158.1167 244.4051
ENERGY: 300000 0.4894 4.6207 23.3408 0.0000 -10597.1347 1380.3627 0.0000 0.0000 1748.3632 -7439.9579 298.3946 -9188.3211 -7495.3762 296.6407 -302.0707 -223.7169 30431.9397 -117.3227 -43.6724
ENERGY: 600000 1.0985 4.5092 22.5676 0.0000 -10691.9153 1415.2809 0.0000 0.0000 1731.8399 -7516.6191 295.5745 -9248.4591 -7476.7688 298.0704 -208.7761 -200.7754 30597.1108 -255.5297 -197.5316
ENERGY: 900000 1.2052 7.2814 23.5110 0.0000 -10662.9959 1337.0341 0.0000 0.0000 1685.0347 -7608.9295 287.5862 -9293.9642 -7476.7136 297.2391 -831.7898 -812.1103 30266.8653 -291.9135 -240.0446
ENERGY: 1200000 2.4371 2.7181 23.8437 0.0000 -10710.6137 1459.1376 0.0000 0.0000 1718.1953 -7504.2820 293.2458 -9222.4773 -7470.4591 299.1093 180.8879 201.3130 30809.7102 -201.4312 -149.2857
ENERGY: 1500000 0.1610 4.5376 22.4448 0.0000 -10779.3253 1466.1566 0.0000 0.0000 1727.1995 -7558.8259 294.7825 -9286.0253 -7480.0531 298.7261 94.3356 181.0226 29971.6320 -244.5295 -194.4171
TCL: Running FEP window   8: Lambda1 0.6499999999999997 Lambda2 0.5999999999999996 [dLambda -0.050000000000000044]
TCL: Setting parameter firsttimestep to 0
TCL: Setting parameter alchLambda to 0.6499999999999997
Info: NONBONDED TABLE R-SQUARED SPACING: 0.0625
Info: NONBONDED TABLE SIZE: 705 POINTS
TCL: Setting parameter alchLambda2 to 0.5999999999999996
Info: NONBONDED TABLE R-SQUARED SPACING: 0.0625
Info: NONBONDED TABLE SIZE: 705 POINTS
TCL: Running for 1500000 steps
ETITLE: TS BOND ANGLE DIHED IMPRP ELECT VDW BOUNDARY MISC KINETIC TOTAL TEMP POTENTIAL TOTALAVG TEMPAVG PRESSURE GPRESSURE VOLUME PRESSAVG GPRESSAVG
ENERGY: 0 0.1610 4.5376 22.4448 0.0000 -10777.6952 1464.9697 0.0000 0.0000 1726.3166 -7559.2654 294.6319 -9285.5820 -7559.2654 294.6319 80.2953 168.9524 29971.6320 80.2953 168.9524
ENERGY: 300000 0.9435 6.8551 22.3938 0.0000 -10712.8957 1390.5770 0.0000 0.0000 1740.2700 -7551.8564 297.0133 -9292.1264 -7527.9270 298.4857 -709.1009 -609.3929 30441.5857 -212.8136 -124.9415
ENERGY: 600000 0.5129 6.8504 23.7949 0.0000 -10737.9763 1435.3204 0.0000 0.0000 1761.7648 -7509.7329 300.6818 -9271.4977 -7507.6504 299.7715 -353.8818 -326.5213 30675.6653 -42.7081 38.2443
ENERGY: 900000 1.1191 3.8909 24.3909 0.0000 -10667.3537 1357.7739 0.0000 0.0000 1764.7456 -7515.4333 301.1906 -9280.1789 -7513.9403 298.9538 -672.4001 -578.2261 30320.1384 -86.8683 -5.5325
ENERGY: 1200000 1.3189 9.2704 20.6824 0.0000 -10711.7139 1413.1045 0.0000 0.0000 1776.4110 -7490.9267 303.1815 -9267.3377 -7522.8783 298.9532 -416.7688 -386.3199 30575.5150 -115.4038 -51.9584
ENERGY: 1500000 1.5185 4.3138 25.2087 0.0000 -10737.0096 1419.0928 0.0000 0.0000 1784.0033 -7502.8724 304.4773 -9286.8757 -7513.1576 299.5042 -345.5191 -268.3584 30217.1822 -140.0905 -70.8770
TCL: Running FEP window   9: Lambda1 0.5999999999999996 Lambda2 0.5499999999999996 [dLambda -0.050000000000000044]
TCL: Setting parameter firsttimestep to 0
TCL: Setting parameter alchLambda to 0.5999999999999996
Info: NONBONDED TABLE R-SQUARED SPACING: 0.0625
Info: NONBONDED TABLE SIZE: 705 POINTS
TCL: Setting parameter alchLambda2 to 0.5499999999999996
Info: NONBONDED TABLE R-SQUARED SPACING: 0.0625
Info: NONBONDED TABLE SIZE: 705 POINTS
TCL: Running for 1500000 steps
ETITLE: TS BOND ANGLE DIHED IMPRP ELECT VDW BOUNDARY MISC KINETIC TOTAL TEMP POTENTIAL TOTALAVG TEMPAVG PRESSURE GPRESSURE VOLUME PRESSAVG GPRESSAVG
ENERGY: 0 1.5186 4.3138 25.2087 0.0000 -10735.5153 1418.9492 0.0000 0.0000 1783.1034 -7502.4216 304.3237 -9285.5250 -7502.4216 304.3237 -353.0806 -273.1877 30217.1822 -353.0806 -273.1877
ENERGY: 300000 0.3634 2.6837 21.9806 0.0000 -10685.6081 1397.7950 0.0000 0.0000 1735.3022 -7527.4832 296.1654 -9262.7854 -7495.7794 299.3755 -353.3817 -326.3474 30404.1671 -221.3023 -195.4875
ENERGY: 600000 2.2966 4.8873 24.6454 0.0000 -10759.2378 1417.6614 0.0000 0.0000 1712.2839 -7597.4632 292.2369 -9309.7471 -7515.2462 297.0586 -379.7932 -275.2773 30261.5053 -337.4686 -286.2516
ENERGY: 900000 1.5143 5.4712 22.5986 0.0000 -10802.3359 1479.6621 0.0000 0.0000 1757.6361 -7535.4537 299.9772 -9293.0898 -7505.1468 299.2813 217.8858 276.7268 30101.6149 -238.0509 -186.5107
ENERGY: 1200000 0.9049 6.8823 21.6377 0.0000 -10596.2563 1406.3770 0.0000 0.0000 1777.7491 -7382.7053 303.4099 -9160.4544 -7494.3699 299.9359 -194.8061 -195.7919 30720.3026 -78.0959 -25.0298
ENERGY: 1500000 2.0500 4.3327 21.4663 0.0000 -10737.4002 1493.5796 0.0000 0.0000 1698.8657 -7517.1058 289.9468 -9215.9716 -7500.9566 298.5192 436.6840 495.2571 30509.1747 -5.0305 48.2394
TCL: Running FEP window  10: Lambda1 0.5499999999999996 Lambda2 0.4999999999999996 [dLambda -0.04999999999999999]
TCL: Setting parameter firsttimestep to 0
TCL: Setting parameter alchLambda to 0.5499999999999996
Info: NONBONDED TABLE R-SQUARED SPACING: 0.0625
Info: NONBONDED TABLE SIZE: 705 POINTS
TCL: Setting parameter alchLambda2 to 0.4999999999999996
Info: NONBONDED TABLE R-SQUARED SPACING: 0.0625
Info: NONBONDED TABLE SIZE: 705 POINTS
TCL: Running for 1500000 steps
ETITLE: TS BOND ANGLE DIHED IMPRP ELECT VDW BOUNDARY MISC KINETIC TOTAL TEMP POTENTIAL TOTALAVG TEMPAVG PRESSURE GPRESSURE VOLUME PRESSAVG GPRESSAVG
ENERGY: 0 2.0500 4.3327 21.4663 0.0000 -10735.7156 1493.3065 0.0000 0.0000 1697.9914 -7516.5687 289.7976 -9214.5601 -7516.5687 289.7976 403.5532 488.1648 30509.1747 403.5532 488.1648
ENERGY: 300000 1.2214 4.7644 22.2981 0.0000 -10670.6482 1398.4789 0.0000 0.0000 1795.2045 -7448.6809 306.3890 -9243.8854 -7451.7199 301.3039 -252.4638 -121.7949 30263.8084 132.6509 200.3954
ENERGY: 600000 0.8440 3.7270 22.8974 0.0000 -10636.0712 1325.4813 0.0000 0.0000 1747.7556 -7535.3658 298.2909 -9283.1214 -7462.2773 302.2468 -925.3803 -842.7256 30294.4051 -170.1947 -113.6540
ENERGY: 900000 1.1939 3.3977 22.3851 0.0000 -10668.2347 1350.1337 0.0000 0.0000 1774.1399 -7516.9844 302.7939 -9291.1243 -7468.0727 302.0877 -818.8089 -813.2448 30276.9745 -276.6164 -234.9077
ENERGY: 1200000 1.0042 5.2545 25.6969 0.0000 -10636.2576 1398.2685 0.0000 0.0000 1728.3100 -7477.7234 294.9721 -9206.0334 -7472.4555 300.8017 -335.0798 -269.4602 30767.3728 -223.7989 -175.4654
ENERGY: 1500000 0.9912 5.6750 23.7849 0.0000 -10717.4209 1464.0566 0.0000 0.0000 1752.2698 -7470.6435 299.0613 -9222.9133 -7473.1900 300.3613 33.3744 106.9480 30576.9601 -196.1266 -143.7048
TCL: Running FEP window  11: Lambda1 0.4999999999999996 Lambda2 0.4499999999999996 [dLambda -0.04999999999999999]
TCL: Setting parameter firsttimestep to 0
TCL: Setting parameter alchLambda to 0.4999999999999996
Info: NONBONDED TABLE R-SQUARED SPACING: 0.0625
Info: NONBONDED TABLE SIZE: 705 POINTS
TCL: Setting parameter alchLambda2 to 0.4499999999999996
Info: NONBONDED TABLE R-SQUARED SPACING: 0.0625
Info: NONBONDED TABLE SIZE: 705 POINTS
TCL: Running for 1500000 steps
ETITLE: TS BOND ANGLE DIHED IMPRP ELECT VDW BOUNDARY MISC KINETIC TOTAL TEMP POTENTIAL TOTALAVG TEMPAVG PRESSURE GPRESSURE VOLUME PRESSAVG GPRESSAVG
ENERGY: 0 0.9912 5.6750 23.7849 0.0000 -10717.1502 1464.3902 0.0000 0.0000 1751.3841 -7470.9248 298.9102 -9222.3090 -7470.9248 298.9102 28.6692 105.4098 30576.9601 28.6692 105.4098
ENERGY: 300000 4.2330 6.6223 21.5522 0.0000 -10669.3424 1466.9721 0.0000 0.0000 1727.0184 -7442.9444 294.7516 -9169.9628 -7454.2301 302.0605 476.6612 478.2551 30347.3722 336.9486 364.2200
ENERGY: 600000 1.0502 4.8624 20.6725 0.0000 -10686.7735 1451.3519 0.0000 0.0000 1737.7111 -7471.1255 296.5766 -9208.8366 -7467.5131 300.2044 -108.4125 29.0576 30718.9803 217.6965 281.4060
ENERGY: 900000 1.0633 7.2853 22.3195 0.0000 -10678.2190 1409.9309 0.0000 0.0000 1812.9896 -7424.6304 309.4244 -9237.6200 -7485.9433 300.0708 -113.0250 -80.6171 30271.6067 69.7021 136.3511
ENERGY: 1200000 0.9852 7.2608 24.2835 0.0000 -10802.3450 1511.5757 0.0000 0.0000 1697.6399 -7560.5998 289.7376 -9258.2397 -7499.8092 299.6477 616.3359 689.8131 30102.7176 149.7070 216.0354
ENERGY: 1500000 1.1221 3.4701 23.0790 0.0000 -10695.9591 1449.4450 0.0000 0.0000 1724.8372 -7494.0057 294.3794 -9218.8429 -7493.6012 300.0292 303.6137 373.2276 30006.1134 156.3259 221.4813
TCL: Running FEP window  12: Lambda1 0.4499999999999996 Lambda2 0.39999999999999963 [dLambda -0.04999999999999999]
TCL: Setting parameter firsttimestep to 0
TCL: Setting parameter alchLambda to 0.4499999999999996
Info: NONBONDED TABLE R-SQUARED SPACING: 0.0625
Info: NONBONDED TABLE SIZE: 705 POINTS
TCL: Setting parameter alchLambda2 to 0.39999999999999963
Info: NONBONDED TABLE R-SQUARED SPACING: 0.0625
Info: NONBONDED TABLE SIZE: 705 POINTS
TCL: Running for 1500000 steps
ETITLE: TS BOND ANGLE DIHED IMPRP ELECT VDW BOUNDARY MISC KINETIC TOTAL TEMP POTENTIAL TOTALAVG TEMPAVG PRESSURE GPRESSURE VOLUME PRESSAVG GPRESSAVG
ENERGY: 0 1.1221 3.4701 23.0790 0.0000 -10695.9589 1448.9987 0.0000 0.0000 1723.9508 -7495.3383 294.2281 -9219.2891 -7495.3383 294.2281 293.2741 367.1257 30006.1134 293.2741 367.1257
ENERGY: 300000 3.0553 6.7840 25.7118 0.0000 -10756.8240 1483.1613 0.0000 0.0000 1760.8161 -7477.2956 300.5199 -9238.1117 -7520.6655 296.1752 244.4918 348.4204 30126.8309 40.7609 101.2393
ENERGY: 600000 1.2300 2.6051 22.7355 0.0000 -10595.8078 1394.9210 0.0000 0.0000 1735.6273 -7438.6890 296.2209 -9174.3163 -7496.9624 296.9473 -426.8966 -377.9548 31034.8091 100.1036 144.3932
ENERGY: 900000 2.4629 3.4509 22.3230 0.0000 -10742.0359 1467.2637 0.0000 0.0000 1759.2431 -7487.2923 300.2514 -9246.5353 -7467.8658 299.8527 378.2259 431.3591 30206.9975 80.1628 119.2929
ENERGY: 1200000 0.6841 5.4930 23.9272 0.0000 -10740.5651 1413.5106 0.0000 0.0000 1753.7776 -7543.1725 299.3187 -9296.9502 -7489.3036 299.5988 -522.0893 -461.2230 30368.9983 108.0847 160.2244
ENERGY: 1500000 1.0438 2.4271 22.4250 0.0000 -10645.9278 1327.9973 0.0000 0.0000 1759.5249 -7532.5096 300.2995 -9292.0345 -7493.0610 299.4579 -895.9770 -853.8602 30391.9838 113.9878 161.7547
TCL: Running FEP window  13: Lambda1 0.39999999999999963 Lambda2 0.34999999999999964 [dLambda -0.04999999999999999]
TCL: Setting parameter firsttimestep to 0
TCL: Setting parameter alchLambda to 0.39999999999999963
Info: NONBONDED TABLE R-SQUARED SPACING: 0.0625
Info: NONBONDED TABLE SIZE: 705 POINTS
TCL: Setting parameter alchLambda2 to 0.34999999999999964
Info: NONBONDED TABLE R-SQUARED SPACING: 0.0625
Info: NONBONDED TABLE SIZE: 705 POINTS
TCL: Running for 1500000 steps
ETITLE: TS BOND ANGLE DIHED IMPRP ELECT VDW BOUNDARY MISC KINETIC TOTAL TEMP POTENTIAL TOTALAVG TEMPAVG PRESSURE GPRESSURE VOLUME PRESSAVG GPRESSAVG
ENERGY: 0 1.0438 2.4271 22.4250 0.0000 -10645.9274 1328.2320 0.0000 0.0000 1758.6598 -7533.1397 300.1519 -9291.7995 -7533.1397 300.1519 -935.5185 -858.8836 30391.9838 -935.5185 -858.8836
ENERGY: 300000 2.4276 7.4421 20.6263 0.0000 -10822.9035 1487.6501 0.0000 0.0000 1719.7405 -7585.0169 293.5095 -9304.7574 -7546.5655 296.0947 210.2980 284.7775 30208.1800 -298.1101 -250.8603
ENERGY: 600000 0.2282 5.5544 22.2613 0.0000 -10670.8092 1409.3532 0.0000 0.0000 1733.7118 -7499.7003 295.8940 -9233.4121 -7532.0940 296.7311 -468.0872 -401.6827 30613.5431 -310.4968 -256.3979
ENERGY: 900000 1.4865 3.4942 23.5863 0.0000 -10665.5388 1378.5480 0.0000 0.0000 1713.7599 -7544.6639 292.4888 -9258.4238 -7520.8797 296.9667 -753.9360 -640.6977 30356.7582 -354.2500 -292.9104
ENERGY: 1200000 0.5959 6.8773 24.0657 0.0000 -10621.5092 1368.8854 0.0000 0.0000 1808.6719 -7412.4131 308.6875 -9221.0850 -7503.7250 298.9706 -358.0401 -297.3628 30377.9438 -302.6928 -235.4513
ENERGY: 1500000 0.8420 9.5929 20.7617 0.0000 -10706.0856 1399.4952 0.0000 0.0000 1750.9440 -7524.4497 298.8350 -9275.3937 -7500.2835 298.9184 -400.4166 -370.8107 30433.5195 -296.9915 -233.4948
TCL: Running FEP window  14: Lambda1 0.34999999999999964 Lambda2 0.29999999999999966 [dLambda -0.04999999999999999]
TCL: Setting parameter firsttimestep to 0
TCL: Setting parameter alchLambda to 0.34999999999999964
Info: NONBONDED TABLE R-SQUARED SPACING: 0.0625
Info: NONBONDED TABLE SIZE: 705 POINTS
TCL: Setting parameter alchLambda2 to 0.29999999999999966
Info: NONBONDED TABLE R-SQUARED SPACING: 0.0625
Info: NONBONDED TABLE SIZE: 705 POINTS
TCL: Running for 1500000 steps
ETITLE: TS BOND ANGLE DIHED IMPRP ELECT VDW BOUNDARY MISC KINETIC TOTAL TEMP POTENTIAL TOTALAVG TEMPAVG PRESSURE GPRESSURE VOLUME PRESSAVG GPRESSAVG
ENERGY: 0 0.8420 9.5929 20.7617 0.0000 -10706.0852 1399.8472 0.0000 0.0000 1750.1042 -7524.9372 298.6917 -9275.0414 -7524.9372 298.6917 -447.6761 -371.7556 30433.5195 -447.6761 -371.7556
ENERGY: 300000 1.6775 3.0248 22.4401 0.0000 -10765.8646 1470.2899 0.0000 0.0000 1746.4755 -7521.9567 298.0724 -9268.4322 -7482.2127 302.5740 216.4292 195.3457 30413.7111 196.5464 260.7393
ENERGY: 600000 0.8619 8.0355 20.6531 0.0000 -10689.3775 1405.4948 0.0000 0.0000 1736.9361 -7517.3961 296.4443 -9254.3322 -7501.3850 299.8876 -107.9158 17.1211 29660.7372 -42.8304 32.1337
ENERGY: 900000 0.7957 7.5804 23.0362 0.0000 -10629.8458 1358.7920 0.0000 0.0000 1738.8847 -7500.7568 296.7769 -9239.6415 -7514.1489 299.1376 -739.0148 -662.2628 30275.0085 -131.0527 -61.9413
ENERGY: 1200000 1.7846 3.7727 23.5011 0.0000 -10630.0816 1389.2701 0.0000 0.0000 1733.2246 -7478.5285 295.8108 -9211.7530 -7504.3537 299.0995 -293.7210 -258.8731 30551.1340 -249.0072 -176.8807
ENERGY: 1500000 2.3342 6.5772 23.2399 0.0000 -10543.3023 1335.3212 0.0000 0.0000 1767.0808 -7408.7491 301.5891 -9175.8299 -7494.5557 299.3871 -696.0564 -641.1644 30579.8356 -235.0030 -164.8139
TCL: Running FEP window  15: Lambda1 0.29999999999999966 Lambda2 0.24999999999999967 [dLambda -0.04999999999999999]
TCL: Setting parameter firsttimestep to 0
TCL: Setting parameter alchLambda to 0.29999999999999966
Info: NONBONDED TABLE R-SQUARED SPACING: 0.0625
Info: NONBONDED TABLE SIZE: 705 POINTS
TCL: Setting parameter alchLambda2 to 0.24999999999999967
Info: NONBONDED TABLE R-SQUARED SPACING: 0.0625
Info: NONBONDED TABLE SIZE: 705 POINTS
TCL: Running for 1500000 steps
ETITLE: TS BOND ANGLE DIHED IMPRP ELECT VDW BOUNDARY MISC KINETIC TOTAL TEMP POTENTIAL TOTALAVG TEMPAVG PRESSURE GPRESSURE VOLUME PRESSAVG GPRESSAVG
ENERGY: 0 2.3342 6.5772 23.2399 0.0000 -10543.3036 1335.6584 0.0000 0.0000 1766.1962 -7409.2978 301.4381 -9175.4940 -7409.2978 301.4381 -735.0468 -638.0751 30579.8356 -735.0468 -638.0751
ENERGY: 300000 1.2995 6.4133 22.0353 0.0000 -10649.5509 1426.0949 0.0000 0.0000 1742.0610 -7451.6471 297.3190 -9193.7080 -7479.1144 300.6638 -90.3077 -36.7640 30691.1312 -131.0054 -60.1853
ENERGY: 600000 0.1018 4.1049 22.4235 0.0000 -10618.8036 1336.7881 0.0000 0.0000 1762.7538 -7492.6315 300.8506 -9255.3853 -7501.8618 301.2283 -1080.0426 -993.6541 30513.2853 -228.6593 -155.3135
ENERGY: 900000 2.9099 9.5092 22.2011 0.0000 -10669.1528 1435.4599 0.0000 0.0000 1749.4978 -7449.5747 298.5882 -9199.0725 -7499.5010 300.3712 -179.8715 -48.8070 30621.4620 -204.6363 -135.4451
ENERGY: 1200000 0.5588 5.4057 23.3011 0.0000 -10784.6832 1441.3638 0.0000 0.0000 1753.2661 -7560.7875 299.2314 -9314.0537 -7510.3622 299.8096 -17.1373 3.4351 29890.0722 -210.4994 -144.2617
ENERGY: 1500000 1.7840 6.5744 22.4195 0.0000 -10683.5100 1399.9432 0.0000 0.0000 1792.6686 -7460.1204 305.9562 -9252.7890 -7516.7553 299.6872 -191.5115 -143.0959 30225.4672 -167.9616 -104.4613
TCL: Running FEP window  16: Lambda1 0.24999999999999967 Lambda2 0.19999999999999968 [dLambda -0.04999999999999999]
TCL: Setting parameter firsttimestep to 0
TCL: Setting parameter alchLambda to 0.24999999999999967
Info: NONBONDED TABLE R-SQUARED SPACING: 0.0625
Info: NONBONDED TABLE SIZE: 705 POINTS
TCL: Setting parameter alchLambda2 to 0.19999999999999968
Info: NONBONDED TABLE R-SQUARED SPACING: 0.0625
Info: NONBONDED TABLE SIZE: 705 POINTS
TCL: Running for 1500000 steps
ETITLE: TS BOND ANGLE DIHED IMPRP ELECT VDW BOUNDARY MISC KINETIC TOTAL TEMP POTENTIAL TOTALAVG TEMPAVG PRESSURE GPRESSURE VOLUME PRESSAVG GPRESSAVG
ENERGY: 0 1.7840 6.5744 22.4195 0.0000 -10683.5087 1400.1937 0.0000 0.0000 1791.7814 -7460.7558 305.8048 -9252.5372 -7460.7558 305.8048 -208.4663 -141.3985 30225.4672 -208.4663 -141.3985
ENERGY: 300000 2.8868 6.0602 23.1362 0.0000 -10550.2783 1357.6867 0.0000 0.0000 1681.0973 -7479.4112 286.9142 -9160.5084 -7496.6831 296.8237 -505.2261 -416.1472 30420.0806 -349.2989 -277.2590
ENERGY: 600000 1.6159 2.5637 23.8414 0.0000 -10820.0945 1520.5234 0.0000 0.0000 1706.3926 -7565.1575 291.2314 -9271.5502 -7511.0548 295.9766 744.1836 857.4949 29823.7795 -182.2182 -107.9911
ENERGY: 900000 0.8110 4.8796 22.3963 0.0000 -10693.3557 1433.3993 0.0000 0.0000 1723.7527 -7508.1168 294.1943 -9231.8696 -7508.2531 295.6637 130.1224 196.1891 30148.2319 -113.3384 -38.8821
ENERGY: 1200000 0.4983 3.7255 24.8502 0.0000 -10884.9833 1534.3663 0.0000 0.0000 1781.4846 -7540.0584 304.0474 -9321.5430 -7513.3814 296.5747 587.9989 684.2483 29996.5239 -32.4707 36.0997
ENERGY: 1500000 1.2045 4.0373 23.0552 0.0000 -10653.6644 1419.3878 0.0000 0.0000 1793.6569 -7412.3228 306.1249 -9205.9797 -7503.3888 297.0852 -147.9680 -86.0052 30398.3314 -35.1659 37.2044
TCL: Running FEP window  17: Lambda1 0.19999999999999968 Lambda2 0.1499999999999997 [dLambda -0.04999999999999999]
TCL: Setting parameter firsttimestep to 0
TCL: Setting parameter alchLambda to 0.19999999999999968
Info: NONBONDED TABLE R-SQUARED SPACING: 0.0625
Info: NONBONDED TABLE SIZE: 705 POINTS
TCL: Setting parameter alchLambda2 to 0.1499999999999997
Info: NONBONDED TABLE R-SQUARED SPACING: 0.0625
Info: NONBONDED TABLE SIZE: 705 POINTS
TCL: Running for 1500000 steps
ETITLE: TS BOND ANGLE DIHED IMPRP ELECT VDW BOUNDARY MISC KINETIC TOTAL TEMP POTENTIAL TOTALAVG TEMPAVG PRESSURE GPRESSURE VOLUME PRESSAVG GPRESSAVG
ENERGY: 0 1.2045 4.0373 23.0552 0.0000 -10653.6652 1419.5603 0.0000 0.0000 1792.7783 -7413.0297 305.9749 -9205.8081 -7413.0297 305.9749 -183.9394 -88.3575 30398.3314 -183.9394 -88.3575
ENERGY: 300000 4.7106 6.9980 23.0619 0.0000 -10749.5623 1411.8932 0.0000 0.0000 1751.8101 -7551.0885 298.9829 -9302.8986 -7481.4405 302.2426 -612.1445 -546.4925 30304.8662 -75.9850 -4.3682
ENERGY: 600000 1.1066 5.8419 25.1313 0.0000 -10701.0031 1421.6154 0.0000 0.0000 1719.1222 -7528.1857 293.4040 -9247.3079 -7486.4844 302.1446 -363.7168 -251.3690 30460.3591 175.0258 250.7461
ENERGY: 900000 1.8800 5.3905 22.5299 0.0000 -10701.8398 1381.7171 0.0000 0.0000 1706.1060 -7584.2163 291.1825 -9290.3223 -7501.8188 299.8703 -639.8729 -588.8466 30278.5042 47.0771 124.5556
ENERGY: 1200000 0.6278 5.7349 26.5069 0.0000 -10829.4747 1514.3724 0.0000 0.0000 1763.7792 -7518.4534 301.0256 -9282.2327 -7501.2318 300.6784 730.2078 831.9349 29857.6271 80.6221 159.6711
ENERGY: 1500000 1.5234 7.7265 21.4571 0.0000 -10545.0028 1303.4302 0.0000 0.0000 1773.4591 -7437.4064 302.6777 -9210.8655 -7498.7608 300.3637 -963.2779 -896.0652 30494.1860 4.7476 80.3919
TCL: Running FEP window  18: Lambda1 0.1499999999999997 Lambda2 0.09999999999999969 [dLambda -0.05 ]
TCL: Setting parameter firsttimestep to 0
TCL: Setting parameter alchLambda to 0.1499999999999997
Info: NONBONDED TABLE R-SQUARED SPACING: 0.0625
Info: NONBONDED TABLE SIZE: 705 POINTS
TCL: Setting parameter alchLambda2 to 0.09999999999999969
Info: NONBONDED TABLE R-SQUARED SPACING: 0.0625
Info: NONBONDED TABLE SIZE: 705 POINTS
TCL: Running for 1500000 steps
ETITLE: TS BOND ANGLE DIHED IMPRP ELECT VDW BOUNDARY MISC KINETIC TOTAL TEMP POTENTIAL TOTALAVG TEMPAVG PRESSURE GPRESSURE VOLUME PRESSAVG GPRESSAVG
ENERGY: 0 1.5234 7.7265 21.4571 0.0000 -10545.0039 1303.5188 0.0000 0.0000 1772.6325 -7438.1456 302.5366 -9210.7781 -7438.1456 302.5366 -977.9404 -901.9721 30494.1860 -977.9404 -901.9721
ENERGY: 300000 0.6251 3.9673 22.9851 0.0000 -10666.5580 1424.3659 0.0000 0.0000 1758.8791 -7455.7355 300.1893 -9214.6147 -7435.5185 301.1194 147.3719 125.0582 30295.6465 -103.2936 -63.9490
ENERGY: 600000 0.9757 9.4537 20.1732 0.0000 -10673.4484 1424.7503 0.0000 0.0000 1740.9824 -7477.1131 297.1349 -9218.0955 -7460.9379 299.2436 -76.2829 49.5636 30263.8628 84.0369 149.1066
ENERGY: 900000 1.6381 4.9300 24.7151 0.0000 -10806.4267 1458.7795 0.0000 0.0000 1771.5103 -7544.8539 302.3451 -9316.3642 -7475.4128 300.3825 -71.3414 -48.3545 30260.5453 48.4864 102.7629
ENERGY: 1200000 1.2603 4.6031 20.8807 0.0000 -10805.7370 1446.4769 0.0000 0.0000 1743.4731 -7589.0428 297.5600 -9332.5159 -7488.7096 300.6703 -171.6752 -45.3544 29845.5691 0.7523 60.4370
ENERGY: 1500000 1.6435 4.1056 23.0393 0.0000 -10527.5070 1338.6382 0.0000 0.0000 1729.6868 -7430.3937 295.2070 -9160.0804 -7484.9774 300.6684 -881.2394 -840.2772 30731.4240 -98.0114 -39.7147
TCL: Running FEP window  19: Lambda1 0.09999999999999969 Lambda2 0.049999999999999684 [dLambda -0.05 ]
TCL: Setting parameter firsttimestep to 0
TCL: Setting parameter alchLambda to 0.09999999999999969
Info: NONBONDED TABLE R-SQUARED SPACING: 0.0625
Info: NONBONDED TABLE SIZE: 705 POINTS
TCL: Setting parameter alchLambda2 to 0.049999999999999684
Info: NONBONDED TABLE R-SQUARED SPACING: 0.0625
Info: NONBONDED TABLE SIZE: 705 POINTS
TCL: Running for 1500000 steps
ETITLE: TS BOND ANGLE DIHED IMPRP ELECT VDW BOUNDARY MISC KINETIC TOTAL TEMP POTENTIAL TOTALAVG TEMPAVG PRESSURE GPRESSURE VOLUME PRESSAVG GPRESSAVG
ENERGY: 0 1.6435 4.1056 23.0393 0.0000 -10527.5080 1338.4938 0.0000 0.0000 1728.7940 -7431.4318 295.0547 -9160.2258 -7431.4318 295.0547 -923.2550 -844.2850 30731.4240 -923.2550 -844.2850
ENERGY: 300000 0.8649 2.2834 23.9096 0.0000 -10721.6928 1400.4900 0.0000 0.0000 1770.9989 -7523.1460 302.2578 -9294.1449 -7471.8364 298.8020 -382.9294 -280.6793 29890.9147 -349.2433 -262.1531
ENERGY: 600000 2.2559 2.2627 23.8190 0.0000 -10829.2622 1547.8586 0.0000 0.0000 1709.4785 -7543.5874 291.7581 -9253.0659 -7472.0566 297.3979 848.2070 951.3914 30355.3365 -137.0619 -62.2318
ENERGY: 900000 3.4505 4.5603 23.0910 0.0000 -10748.9341 1419.6284 0.0000 0.0000 1748.3803 -7549.8235 298.3975 -9298.2038 -7483.8402 297.4457 -442.3018 -341.2777 30200.4032 -126.0812 -36.0631
ENERGY: 1200000 0.6230 4.1987 22.7002 0.0000 -10800.5752 1516.0556 0.0000 0.0000 1793.3433 -7463.6543 306.0714 -9256.9977 -7483.5263 298.5577 741.8272 756.2121 29898.8364 19.6811 96.1112
ENERGY: 1500000 2.4611 4.2451 22.3994 0.0000 -10770.4670 1439.9178 0.0000 0.0000 1721.3419 -7580.1016 293.7828 -9301.4436 -7491.9014 298.2249 -375.4712 -344.8284 30597.7042 -3.5961 65.7735
TCL: Running FEP window  20: Lambda1 0.049999999999999684 Lambda2 0.0    [dLambda -0.049999999999999684]
TCL: Setting parameter firsttimestep to 0
TCL: Setting parameter alchLambda to 0.049999999999999684
Info: NONBONDED TABLE R-SQUARED SPACING: 0.0625
Info: NONBONDED TABLE SIZE: 705 POINTS
TCL: Setting parameter alchLambda2 to 0.0
Info: NONBONDED TABLE R-SQUARED SPACING: 0.0625
Info: NONBONDED TABLE SIZE: 705 POINTS
TCL: Running for 1500000 steps
ETITLE: TS BOND ANGLE DIHED IMPRP ELECT VDW BOUNDARY MISC KINETIC TOTAL TEMP POTENTIAL TOTALAVG TEMPAVG PRESSURE GPRESSURE VOLUME PRESSAVG GPRESSAVG
ENERGY: 0 2.4611 4.2451 22.3994 0.0000 -10770.4676 1440.2581 0.0000 0.0000 1720.4639 -7580.6399 293.6330 -9301.1038 -7580.6399 293.6330 -430.2335 -344.7028 30597.7042 -430.2335 -344.7028
ENERGY: 300000 1.8283 3.9404 22.8981 0.0000 -10827.3345 1497.1200 0.0000 0.0000 1799.0991 -7502.4485 307.0537 -9301.5476 -7498.3843 302.6704 297.3336 383.2561 30178.4273 94.4731 164.7797
ENERGY: 600000 0.0489 3.6053 22.5042 0.0000 -10798.0370 1488.2606 0.0000 0.0000 1748.0185 -7535.5995 298.3357 -9283.6180 -7492.7042 301.3063 385.4143 455.3414 30306.6829 298.4387 376.1700
ENERGY: 900000 0.8030 4.8389 22.7400 0.0000 -10733.4567 1456.1700 0.0000 0.0000 1787.4614 -7461.4433 305.0675 -9248.9047 -7477.0172 302.0928 -115.1585 -79.5349 30626.1098 122.6804 195.3395
ENERGY: 1200000 0.4030 3.6489 23.2669 0.0000 -10743.6564 1419.6964 0.0000 0.0000 1809.8184 -7486.8227 308.8832 -9296.6411 -7475.8628 301.5261 -165.2817 -72.3678 29879.4067 85.7562 157.4020
ENERGY: 1500000 0.8500 6.5320 22.8681 0.0000 -10787.2797 1466.1584 0.0000 0.0000 1786.1775 -7504.6937 304.8484 -9290.8712 -7482.2743 300.0915 140.5380 204.5817 30186.9360 126.9481 195.6120
TCL: Exiting due to exit command.
