Info: SIMULATION PARAMETERS:
Info: TIMESTEP               2
Info: NUMBER OF STEPS        0
Info: STEPS PER CYCLE        10
Info: PERIODIC CELL BASIS 1  30.584 0 0
Info: PERIODIC CELL BASIS 2  0 32.1365 0
Info: PERIODIC CELL BASIS 3  0 0 30.3165
Info: PERIODIC CELL CENTER   0 0 0
Info: WRAPPING WATERS AROUND PERIODIC BOUNDARIES ON OUTPUT.
Info: WRAPPING ALL CLUSTERS AROUND PERIODIC BOUNDARIES ON OUTPUT.
Info: FIRST LDB TIMESTEP     50
Info: LAST LDB TIMESTEP     -1
Info: HOM BACKGROUND SCALING 1
Info: PME BACKGROUND SCALING 1
Info: MIN ATOMS PER PATCH    40
Info: EMPTY PATCH LOAD       40 ATOMS
Info: VELOCITY FILE          mobley_8260524_equil.vel
Info: CENTER OF MASS MOVING INITIALLY? NO
Info: DIELECTRIC             1
Info: EXCLUDE                SCALED ONE-FOUR
Info: 1-4 ELECTROSTATICS SCALED BY 0.833333
Info: MODIFIED 1-4 VDW PARAMETERS WILL BE USED
Info: DCD FILENAME           mobley_8260524_prod.dcd
Info: DCD FREQUENCY          100000
Info: DCD FIRST STEP         100000
Info: DCD FILE WILL CONTAIN UNIT CELL DATA
Info: XST FILENAME           mobley_8260524_prod.xst
Info: XST FREQUENCY          100000
Info: NO VELOCITY DCD OUTPUT
Info: NO FORCE DCD OUTPUT
Info: OUTPUT FILENAME        mobley_8260524_prod
Info: BINARY OUTPUT FILES WILL BE USED
Info: RESTART FILENAME       mobley_8260524_prod.restart
Info: RESTART FREQUENCY      100000
Info: BINARY RESTART FILES WILL BE USED
Info: CUTOFF                 9
Info: PAIRLIST DISTANCE      11
Info: PAIRLIST SHRINK RATE   0.01
Info: PAIRLIST GROW RATE     0.01
Info: PAIRLIST TRIGGER       0.3
Info: PAIRLISTS PER CYCLE    2
Info: PAIRLISTS ENABLED
Info: MARGIN                 2
Info: HYDROGEN GROUP CUTOFF  2.5
Info: PATCH DIMENSION        15.5
Info: ENERGY OUTPUT STEPS    100000
Info: ENERGY EVALUATION STEPS    100000
Info: OUTPUT ENERGY PRECISION 4
Info: CROSSTERM ENERGY INCLUDED IN DIHEDRAL
Info: TIMING OUTPUT STEPS    1000000
Info: PRESSURE OUTPUT STEPS  100000
Info: ALCHEMICAL FEP ON
Info: FEP CURRENT LAMBDA VALUE     1
Info: FEP COMPARISON LAMBDA VALUE  0.95
Info: FEP INTRA-ALCHEMICAL NON-BONDED INTERACTIONS WILL BE RETAINED
Info: FEP INTRA-ALCHEMICAL BONDED INTERACTIONS WILL BE RETAINED
Info: FEP VDW SHIFTING COEFFICIENT 5
Info: FEP ELEC. ACTIVE FOR ANNIHILATED PARTICLES BETWEEN LAMBDA = 0 AND LAMBDA = 0.5
Info: FEP ELEC. ACTIVE FOR EXNIHILATED PARTICLES BETWEEN LAMBDA = 0.5 AND LAMBDA = 1
Info: FEP VDW ACTIVE FOR ANNIHILATED PARTICLES BETWEEN LAMBDA = 0 AND LAMBDA = 1
Info: FEP VDW ACTIVE FOR EXNIHILATED PARTICLES BETWEEN LAMBDA = 0 AND LAMBDA = 1
Info: FEP BOND ACTIVE FOR ANNIHILATED PARTICLES BETWEEN LAMBDA = 1 AND LAMBDA = 1
Info: FEP BOND ACTIVE FOR EXNIHILATED PARTICLES BETWEEN LAMBDA = 0 AND LAMBDA = 0
Info: LANGEVIN DYNAMICS ACTIVE
Info: LANGEVIN TEMPERATURE   300
Info: LANGEVIN USING BBK INTEGRATOR
Info: LANGEVIN DAMPING COEFFICIENT IS 1 INVERSE PS
Info: LANGEVIN DYNAMICS APPLIED TO HYDROGENS
Info: LANGEVIN PISTON PRESSURE CONTROL ACTIVE
Info:        TARGET PRESSURE IS 1.01325 BAR
Info:     OSCILLATION PERIOD IS 50 FS
Info:             DECAY TIME IS 25 FS
Info:     PISTON TEMPERATURE IS 300 K
Info:       PRESSURE CONTROL IS GROUP-BASED
Info:    INITIAL STRAIN RATE IS 0.000110786 0.000110786 0.000110786
Info:       CELL FLUCTUATION IS ISOTROPIC
Info: PARTICLE MESH EWALD (PME) ACTIVE
Info: PME TOLERANCE               1e-06
Info: PME EWALD COEFFICIENT       0.348832
Info: PME INTERPOLATION ORDER     4
Info: PME GRID DIMENSIONS         32 36 32
Info: PME MAXIMUM GRID SPACING    1
Info: PME CALCULATION WILL BE PERFORMED ON GPU
Info: FULL ELECTROSTATIC EVALUATION FREQUENCY      2
Info: USING VERLET I (r-RESPA) MTS SCHEME.
Info: C1 SPLITTING OF LONG RANGE ELECTROSTATICS
Info: PLACING ATOMS IN PATCHES BY HYDROGEN GROUPS
Info: RIGID BONDS TO HYDROGEN : ALL
Info:         ERROR TOLERANCE : 1e-08
Info:          MAX ITERATIONS : 100
Info: RIGID WATER USING SETTLE ALGORITHM
Info: RANDOM NUMBER SEED     1742525129
Info: USE HYDROGEN BONDS?    NO
Info: Using AMBER format force field!
Info: AMBER PARM FILE        mobley_8260524.prmtop
Info: COORDINATE PDB         mobley_8260524.pdb
Info: Exclusions will be read from PARM file!
Info: SCNB (VDW SCALING)     2
Info: USING ARITHMETIC MEAN TO COMBINE L-J SIGMA PARAMETERS
Info: BINARY COORDINATES     mobley_8260524_equil.coor
Info: SUMMARY OF PARAMETERS:
Info: 6 BONDS
Info: 4 ANGLES
Info:   4 HARMONIC
Info:   0 COSINE-BASED
Info: 1 DIHEDRAL
Info: 0 IMPROPER
Info: 0 CROSSTERM
Info: 0 VDW
Info: 21 VDW_PAIRS
Info: 0 NBTHOLE_PAIRS
Info: To read alchdata from file: mobley_8260524.pdb
Info: To read alchflag data from column: 5
Info: STRUCTURE SUMMARY:
Info: 2914 ATOMS
Info: 2913 BONDS
Info: 8 ANGLES
Info: 4 DIHEDRALS
Info: 0 IMPROPERS
Info: 0 CROSSTERMS
Info: 2925 EXCLUSIONS
Info: 2911 RIGID BONDS
Info: ALCH: 0 ATOMS TO DISAPPEAR IN FINAL STATE
Info: ALCH: 7 ATOMS TO APPEAR IN FINAL STATE
Info: 5831 DEGREES OF FREEDOM
Info: 972 HYDROGEN GROUPS
Info: 4 ATOMS IN LARGEST HYDROGEN GROUP
Info: 972 MIGRATION GROUPS
Info: 4 ATOMS IN LARGEST MIGRATION GROUP
Info: TOTAL MASS = 17497.6 amu
Info: TOTAL CHARGE = 0.000100007 e
Info: MASS DENSITY = 0.975136 g/cm^3
Info: ATOM DENSITY = 0.0977953 atoms/A^3
Info: ADDED 0 IMPLICIT EXCLUSIONS
Info: NONBONDED TABLE R-SQUARED SPACING: 0.0625
Info: NONBONDED TABLE SIZE: 705 POINTS
Info: REMOVING COM VELOCITY -0.102396 0.0177832 -0.0593857
Info: Use 3D box decompostion in PME FFT.
Info: Updated CUDA force table with 4096 elements.
Info: Updated CUDA LJ table with 6 x 6 elements.
Info: Found 10 unique exclusion lists needing 12 bytes
TCL: Running for 1500000 steps
ETITLE: TS BOND ANGLE DIHED IMPRP ELECT VDW BOUNDARY MISC KINETIC TOTAL TEMP POTENTIAL TOTALAVG TEMPAVG PRESSURE GPRESSURE VOLUME PRESSAVG GPRESSAVG
ENERGY: 0 1.2645 1.9708 0.0000 0.0000 -10670.1051 1505.0455 0.0000 0.0000 1734.5212 -7427.3031 299.3829 -9161.8243 -7427.3031 299.3829 580.8050 659.7996 29796.9350 580.8050 659.7996
ENERGY: 300000 0.5844 1.2061 0.0000 0.0000 -10528.9360 1408.2236 0.0000 0.0000 1709.1407 -7409.7812 295.0021 -9118.9219 -7414.6457 298.4312 -80.6025 24.4140 30293.4992 199.8143 291.2823
ENERGY: 600000 1.4048 2.3520 0.0000 0.0000 -10582.5354 1438.3849 0.0000 0.0000 1695.7551 -7444.6385 292.6917 -9140.3937 -7426.1484 297.0926 421.7936 487.0574 29776.5977 109.1979 189.0659
ENERGY: 900000 0.3161 2.2612 0.0000 0.0000 -10514.5910 1427.8428 0.0000 0.0000 1734.2743 -7349.8965 299.3403 -9084.1709 -7403.0248 297.6425 195.1224 283.3977 30243.2727 169.5643 249.1622
ENERGY: 1200000 1.2949 4.3643 0.0000 0.0000 -10642.8856 1466.4030 0.0000 0.0000 1764.2553 -7406.5681 304.5151 -9170.8234 -7415.0165 297.7333 131.7271 244.4232 30131.0892 147.2933 229.3815
ENERGY: 1500000 0.3211 2.7550 0.0000 0.0000 -10391.1351 1356.5109 0.0000 0.0000 1775.7608 -7255.7873 306.5009 -9031.5481 -7406.7218 298.2183 -539.5615 -443.0203 30917.0203 80.5712 159.6789
TCL: Running FEP window   2: Lambda1 0.95   Lambda2 0.8999999999999999 [dLambda -0.050000000000000044]
TCL: Setting parameter firsttimestep to 0
TCL: Setting parameter alchLambda to 0.95
Info: NONBONDED TABLE R-SQUARED SPACING: 0.0625
Info: NONBONDED TABLE SIZE: 705 POINTS
TCL: Setting parameter alchLambda2 to 0.8999999999999999
Info: NONBONDED TABLE R-SQUARED SPACING: 0.0625
Info: NONBONDED TABLE SIZE: 705 POINTS
TCL: Running for 1500000 steps
ETITLE: TS BOND ANGLE DIHED IMPRP ELECT VDW BOUNDARY MISC KINETIC TOTAL TEMP POTENTIAL TOTALAVG TEMPAVG PRESSURE GPRESSURE VOLUME PRESSAVG GPRESSAVG
ENERGY: 0 0.3211 2.7550 0.0000 0.0000 -10391.2447 1356.7315 0.0000 0.0000 1774.8984 -7256.5386 306.3521 -9031.4370 -7256.5386 306.3521 -523.8603 -447.2703 30917.0203 -523.8603 -447.2703
ENERGY: 300000 0.0133 2.1587 0.0000 0.0000 -10601.4292 1460.4540 0.0000 0.0000 1775.8221 -7362.9812 306.5115 -9138.8032 -7351.6872 302.3432 293.6416 396.6537 30196.0723 -155.2937 -69.9282
ENERGY: 600000 0.4597 3.6456 0.0000 0.0000 -10466.3001 1330.1091 0.0000 0.0000 1713.5702 -7418.5156 295.7667 -9132.0857 -7358.4170 301.2742 -557.4072 -510.8642 29876.1852 -245.1366 -179.0864
ENERGY: 900000 0.2867 1.5034 0.0000 0.0000 -10479.4327 1385.8328 0.0000 0.0000 1746.3414 -7345.4684 301.4231 -9091.8098 -7371.5768 301.4107 -296.7784 -236.1128 30493.6732 -132.0610 -66.6843
ENERGY: 1200000 0.7231 4.3137 0.0000 0.0000 -10512.7452 1356.4893 0.0000 0.0000 1770.8629 -7380.3561 305.6556 -9151.2190 -7376.6480 301.9795 -668.1942 -618.3135 30560.3699 -209.4121 -145.5924
ENERGY: 1500000 0.4009 1.3229 0.0000 0.0000 -10599.1550 1409.1657 0.0000 0.0000 1756.5384 -7431.7271 303.1831 -9188.2656 -7384.2211 301.8620 184.3643 165.6309 29565.2677 -205.6678 -149.1848
TCL: Running FEP window   3: Lambda1 0.8999999999999999 Lambda2 0.8499999999999999 [dLambda -0.050000000000000044]
TCL: Setting parameter firsttimestep to 0
TCL: Setting parameter alchLambda to 0.8999999999999999
Info: NONBONDED TABLE R-SQUARED SPACING: 0.0625
Info: NONBONDED TABLE SIZE: 705 POINTS
TCL: Setting parameter alchLambda2 to 0.8499999999999999
Info: NONBONDED TABLE R-SQUARED SPACING: 0.0625
Info: NONBONDED TABLE SIZE: 705 POINTS
TCL: Running for 1500000 steps
ETITLE: TS BOND ANGLE DIHED IMPRP ELECT VDW BOUNDARY MISC KINETIC TOTAL TEMP POTENTIAL TOTALAVG TEMPAVG PRESSURE GPRESSURE VOLUME PRESSAVG GPRESSAVG
ENERGY: 0 0.4009 1.3229 0.0000 0.0000 -10598.8720 1409.0169 0.0000 0.0000 1755.7106 -7432.4207 303.0402 -9188.1314 -7432.4207 303.0402 66.3369 155.6009 29565.2677 66.3369 155.6009
ENERGY: 300000 0.2268 3.2119 0.0000 0.0000 -10567.4185 1376.5004 0.0000 0.0000 1739.8647 -7447.6147 300.3052 -9187.4794 -7447.1256 296.2236 -705.4601 -634.8678 30717.5963 -17.8258 53.1881
ENERGY: 600000 0.8493 1.8346 0.0000 0.0000 -10505.3210 1415.9048 0.0000 0.0000 1802.8243 -7283.9079 311.1722 -9086.7322 -7417.8220 299.4910 119.7533 149.1456 30083.3817 31.9262 94.6931
ENERGY: 900000 0.2120 3.2484 0.0000 0.0000 -10537.1440 1411.6484 0.0000 0.0000 1771.4500 -7350.5852 305.7569 -9122.0352 -7408.5353 300.7698 251.1539 311.4326 29763.7350 -95.5801 -30.4836
ENERGY: 1200000 0.4218 1.8825 0.0000 0.0000 -10696.2300 1516.0387 0.0000 0.0000 1742.3483 -7435.5386 300.7339 -9177.8869 -7413.0408 301.1587 762.5205 840.8885 29801.4950 -62.5941 -2.2581
ENERGY: 1500000 1.3899 4.5819 0.0000 0.0000 -10678.9670 1455.4451 0.0000 0.0000 1714.7724 -7502.7777 295.9742 -9217.5501 -7417.9259 301.0286 302.0364 291.5427 29688.1955 -111.9961 -57.4282
TCL: Running FEP window   4: Lambda1 0.8499999999999999 Lambda2 0.7999999999999998 [dLambda -0.050000000000000044]
TCL: Setting parameter firsttimestep to 0
TCL: Setting parameter alchLambda to 0.8499999999999999
Info: NONBONDED TABLE R-SQUARED SPACING: 0.0625
Info: NONBONDED TABLE SIZE: 705 POINTS
TCL: Setting parameter alchLambda2 to 0.7999999999999998
Info: NONBONDED TABLE R-SQUARED SPACING: 0.0625
Info: NONBONDED TABLE SIZE: 705 POINTS
TCL: Running for 1500000 steps
ETITLE: TS BOND ANGLE DIHED IMPRP ELECT VDW BOUNDARY MISC KINETIC TOTAL TEMP POTENTIAL TOTALAVG TEMPAVG PRESSURE GPRESSURE VOLUME PRESSAVG GPRESSAVG
ENERGY: 0 1.3899 4.5819 0.0000 0.0000 -10678.7431 1455.6554 0.0000 0.0000 1713.8731 -7503.2428 295.8190 -9217.1159 -7503.2428 295.8190 209.9675 287.5202 29688.1955 209.9675 287.5202
ENERGY: 300000 0.0662 1.3665 0.0000 0.0000 -10641.4934 1507.1130 0.0000 0.0000 1748.1870 -7384.7606 301.7416 -9132.9477 -7475.5619 296.5153 1005.9062 1035.6041 29594.5936 311.7203 372.0724
ENERGY: 600000 0.5341 0.8333 0.0000 0.0000 -10592.1196 1409.8380 0.0000 0.0000 1715.7693 -7465.1450 296.1462 -9180.9142 -7440.2741 300.7290 -248.8762 -208.1632 29983.8199 215.8779 266.6918
ENERGY: 900000 0.6429 1.5901 0.0000 0.0000 -10535.4701 1417.9688 0.0000 0.0000 1712.6485 -7402.6198 295.6076 -9115.2683 -7422.8202 300.9475 10.3736 119.2537 30083.6192 169.9723 237.9516
ENERGY: 1200000 0.0319 2.6196 0.0000 0.0000 -10580.7685 1448.3533 0.0000 0.0000 1649.4267 -7480.3370 284.6953 -9129.7637 -7434.5671 299.5265 -6.2836 28.9562 30406.7940 94.2309 161.3537
ENERGY: 1500000 0.0107 3.5524 0.0000 0.0000 -10578.5407 1416.2665 0.0000 0.0000 1764.6258 -7394.0854 304.5790 -9158.7111 -7432.5521 300.1693 -44.2535 59.8734 29959.3473 101.2739 169.4151
TCL: Running FEP window   5: Lambda1 0.7999999999999998 Lambda2 0.7499999999999998 [dLambda -0.050000000000000044]
TCL: Setting parameter firsttimestep to 0
TCL: Setting parameter alchLambda to 0.7999999999999998
Info: NONBONDED TABLE R-SQUARED SPACING: 0.0625
Info: NONBONDED TABLE SIZE: 705 POINTS
TCL: Setting parameter alchLambda2 to 0.7499999999999998
Info: NONBONDED TABLE R-SQUARED SPACING: 0.0625
Info: NONBONDED TABLE SIZE: 705 POINTS
TCL: Running for 1500000 steps
ETITLE: TS BOND ANGLE DIHED IMPRP ELECT VDW BOUNDARY MISC KINETIC TOTAL TEMP POTENTIAL TOTALAVG TEMPAVG PRESSURE GPRESSURE VOLUME PRESSAVG GPRESSAVG
ENERGY: 0 0.0107 3.5524 0.0000 0.0000 -10578.2409 1416.4963 0.0000 0.0000 1763.7325 -7394.4490 304.4248 -9158.1815 -7394.4490 304.4248 -19.7453 58.6413 29959.3473 -19.7453 58.6413
ENERGY: 300000 1.6166 1.8122 0.0000 0.0000 -10720.6443 1514.6894 0.0000 0.0000 1708.6165 -7493.9096 294.9117 -9202.5261 -7413.7635 302.9544 386.4305 486.7186 30203.1662 23.8477 100.7384
ENERGY: 600000 0.3355 3.3712 0.0000 0.0000 -10691.4748 1520.9873 0.0000 0.0000 1766.2029 -7400.5778 304.8512 -9166.7807 -7423.4441 301.5106 884.4897 896.6408 29805.7806 268.8885 325.6803
ENERGY: 900000 2.2644 2.0516 0.0000 0.0000 -10435.1379 1380.0723 0.0000 0.0000 1719.7656 -7330.9840 296.8360 -9050.7496 -7422.1256 300.7538 -195.7840 -94.1062 30256.0601 211.8688 265.5310
ENERGY: 1200000 0.0868 2.1915 0.0000 0.0000 -10577.5716 1409.0397 0.0000 0.0000 1833.4903 -7332.7634 316.4652 -9166.2536 -7412.2291 301.9016 223.1346 282.6917 29647.5523 177.7992 235.7847
ENERGY: 1500000 1.2411 0.6171 0.0000 0.0000 -10660.4872 1454.4439 0.0000 0.0000 1703.0430 -7501.1420 293.9497 -9204.1850 -7420.8643 300.8873 39.8319 109.8784 29919.2157 161.7126 217.0140
TCL: Running FEP window   6: Lambda1 0.7499999999999998 Lambda2 0.6999999999999997 [dLambda -0.050000000000000044]
TCL: Setting parameter firsttimestep to 0
TCL: Setting parameter alchLambda to 0.7499999999999998
Info: NONBONDED TABLE R-SQUARED SPACING: 0.0625
Info: NONBONDED TABLE SIZE: 705 POINTS
TCL: Setting parameter alchLambda2 to 0.6999999999999997
Info: NONBONDED TABLE R-SQUARED SPACING: 0.0625
Info: NONBONDED TABLE SIZE: 705 POINTS
TCL: Running for 1500000 steps
ETITLE: TS BOND ANGLE DIHED IMPRP ELECT VDW BOUNDARY MISC KINETIC TOTAL TEMP POTENTIAL TOTALAVG TEMPAVG PRESSURE GPRESSURE VOLUME PRESSAVG GPRESSAVG
ENERGY: 0 1.2411 0.6171 0.0000 0.0000 -10660.4164 1454.3773 0.0000 0.0000 1702.1896 -7501.9913 293.8024 -9204.1809 -7501.9913 293.8024 18.4223 104.0070 29919.2157 18.4223 104.0070
ENERGY: 300000 0.2810 1.9953 0.0000 0.0000 -10539.6808 1400.8182 0.0000 0.0000 1801.6489 -7334.9374 310.9693 -9136.5863 -7413.3221 300.5248 -88.7321 -20.4119 29912.4976 228.2629 284.4958
ENERGY: 600000 0.1017 2.1865 0.0000 0.0000 -10476.3539 1368.5957 0.0000 0.0000 1755.9460 -7349.5239 303.0809 -9105.4700 -7409.7421 300.7875 -420.5175 -292.1722 30053.0935 142.2890 214.0504
ENERGY: 900000 0.0619 1.8205 0.0000 0.0000 -10579.7415 1447.5448 0.0000 0.0000 1754.6155 -7375.6987 302.8512 -9130.3143 -7407.7760 301.8944 -167.1766 -60.3388 30636.5545 219.5304 281.6363
ENERGY: 1200000 0.0783 3.7049 0.0000 0.0000 -10478.9485 1390.2417 0.0000 0.0000 1757.4070 -7327.5167 303.3330 -9084.9237 -7405.3510 301.6305 6.4404 7.9963 30094.8903 134.9961 197.2774
ENERGY: 1500000 1.0332 2.1125 0.0000 0.0000 -10478.8540 1361.1822 0.0000 0.0000 1794.7003 -7319.8258 309.7700 -9114.5261 -7406.3618 301.8023 -402.2569 -349.7598 30090.7038 32.7487 96.0537
TCL: Running FEP window   7: Lambda1 0.6999999999999997 Lambda2 0.6499999999999997 [dLambda -0.050000000000000044]
TCL: Setting parameter firsttimestep to 0
TCL: Setting parameter alchLambda to 0.6999999999999997
Info: NONBONDED TABLE R-SQUARED SPACING: 0.0625
Info: NONBONDED TABLE SIZE: 705 POINTS
TCL: Setting parameter alchLambda2 to 0.6499999999999997
Info: NONBONDED TABLE R-SQUARED SPACING: 0.0625
Info: NONBONDED TABLE SIZE: 705 POINTS
TCL: Running for 1500000 steps
ETITLE: TS BOND ANGLE DIHED IMPRP ELECT VDW BOUNDARY MISC KINETIC TOTAL TEMP POTENTIAL TOTALAVG TEMPAVG PRESSURE GPRESSURE VOLUME PRESSAVG GPRESSAVG
ENERGY: 0 1.0332 2.1125 0.0000 0.0000 -10478.5479 1361.5502 0.0000 0.0000 1793.8404 -7320.0117 309.6215 -9113.8520 -7320.0117 309.6215 -446.4654 -351.5683 30090.7038 -446.4654 -351.5683
ENERGY: 300000 0.6829 3.6293 0.0000 0.0000 -10688.1991 1452.9543 0.0000 0.0000 1702.5419 -7528.3906 293.8632 -9230.9325 -7449.2838 297.7690 108.3927 127.4848 30023.3022 -64.8086 -13.7969
ENERGY: 600000 1.3550 2.2965 0.0000 0.0000 -10587.4731 1384.7021 0.0000 0.0000 1687.9160 -7511.2035 291.3387 -9199.1195 -7474.1256 296.6477 -627.0593 -535.4230 30046.0847 -303.7520 -249.6766
ENERGY: 900000 2.5891 1.0715 0.0000 0.0000 -10479.3559 1342.7388 0.0000 0.0000 1722.0874 -7410.8691 297.2368 -9132.9565 -7465.7998 297.7619 -566.0245 -454.0920 30152.9946 -210.0219 -154.1739
ENERGY: 1200000 1.4343 2.7110 0.0000 0.0000 -10499.4408 1375.0689 0.0000 0.0000 1676.2340 -7443.9926 289.3224 -9120.2267 -7453.9075 297.6527 -412.4086 -357.2716 30048.9875 -177.7889 -120.2733
ENERGY: 1500000 0.2488 4.2834 0.0000 0.0000 -10573.8850 1511.8013 0.0000 0.0000 1762.0716 -7295.4798 304.1382 -9057.5515 -7431.3270 299.2760 923.9216 934.6226 30282.3607 -52.9956 -1.2558
TCL: Running FEP window   8: Lambda1 0.6499999999999997 Lambda2 0.5999999999999996 [dLambda -0.050000000000000044]
TCL: Setting parameter firsttimestep to 0
TCL: Setting parameter alchLambda to 0.6499999999999997
Info: NONBONDED TABLE R-SQUARED SPACING: 0.0625
Info: NONBONDED TABLE SIZE: 705 POINTS
TCL: Setting parameter alchLambda2 to 0.5999999999999996
Info: NONBONDED TABLE R-SQUARED SPACING: 0.0625
Info: NONBONDED TABLE SIZE: 705 POINTS
TCL: Running for 1500000 steps
ETITLE: TS BOND ANGLE DIHED IMPRP ELECT VDW BOUNDARY MISC KINETIC TOTAL TEMP POTENTIAL TOTALAVG TEMPAVG PRESSURE GPRESSURE VOLUME PRESSAVG GPRESSAVG
ENERGY: 0 0.2488 4.2834 0.0000 0.0000 -10573.6155 1511.3941 0.0000 0.0000 1761.1549 -7296.5342 303.9799 -9057.6891 -7296.5342 303.9799 842.1881 925.2043 30282.3607 842.1881 925.2043
ENERGY: 300000 0.1877 1.3242 0.0000 0.0000 -10694.5740 1515.0082 0.0000 0.0000 1810.6772 -7367.3768 312.5276 -9178.0539 -7362.1540 305.8288 723.6639 731.0947 30104.8249 235.1255 312.1742
ENERGY: 600000 0.4760 8.3819 0.0000 0.0000 -10726.4524 1539.7696 0.0000 0.0000 1758.1940 -7419.6310 303.4689 -9177.8250 -7393.6885 304.2977 1127.8827 1203.9052 29325.2984 353.0246 427.9783
ENERGY: 900000 0.0330 2.4703 0.0000 0.0000 -10641.7083 1395.5694 0.0000 0.0000 1735.5705 -7508.0651 299.5640 -9243.6357 -7413.2427 302.6167 -607.7188 -579.9136 30151.6162 183.1052 254.7159
ENERGY: 1200000 0.5748 1.0835 0.0000 0.0000 -10583.5501 1399.8204 0.0000 0.0000 1837.0997 -7344.9716 317.0882 -9182.0714 -7403.1065 303.5105 -294.4235 -278.9390 30191.7780 94.7484 172.6772
ENERGY: 1500000 0.1927 2.5685 0.0000 0.0000 -10747.9966 1538.6530 0.0000 0.0000 1762.4442 -7444.1382 304.2025 -9206.5824 -7405.4493 303.5331 732.8822 762.0474 30050.7252 162.7403 235.3192
TCL: Running FEP window   9: Lambda1 0.5999999999999996 Lambda2 0.5499999999999996 [dLambda -0.050000000000000044]
TCL: Setting parameter firsttimestep to 0
TCL: Setting parameter alchLambda to 0.5999999999999996
Info: NONBONDED TABLE R-SQUARED SPACING: 0.0625
Info: NONBONDED TABLE SIZE: 705 POINTS
TCL: Setting parameter alchLambda2 to 0.5499999999999996
Info: NONBONDED TABLE R-SQUARED SPACING: 0.0625
Info: NONBONDED TABLE SIZE: 705 POINTS
TCL: Running for 1500000 steps
ETITLE: TS BOND ANGLE DIHED IMPRP ELECT VDW BOUNDARY MISC KINETIC TOTAL TEMP POTENTIAL TOTALAVG TEMPAVG PRESSURE GPRESSURE VOLUME PRESSAVG GPRESSAVG
ENERGY: 0 0.1927 2.5685 0.0000 0.0000 -10747.7852 1538.4859 0.0000 0.0000 1761.6036 -7444.9345 304.0574 -9206.5381 -7444.9345 304.0574 671.0316 757.1987 30050.7252 671.0316 757.1987
ENERGY: 300000 1.4589 1.1731 0.0000 0.0000 -10553.7292 1454.5797 0.0000 0.0000 1731.4913 -7365.0262 298.8599 -9096.5175 -7416.5137 301.9228 20.3739 129.7044 30314.3067 266.5505 338.2892
ENERGY: 600000 0.8643 1.5378 0.0000 0.0000 -10711.2447 1466.0913 0.0000 0.0000 1739.3600 -7503.3913 300.2181 -9242.7513 -7451.7738 298.8915 213.9236 315.9282 29597.0798 228.4470 292.4442
ENERGY: 900000 0.0973 3.2506 0.0000 0.0000 -10570.2021 1379.7049 0.0000 0.0000 1767.3791 -7419.7702 305.0542 -9187.1493 -7444.3948 299.1770 -233.0698 -219.7224 29833.8379 111.4150 160.0436
ENERGY: 1200000 0.3067 3.2038 0.0000 0.0000 -10738.4036 1516.2737 0.0000 0.0000 1722.3866 -7496.2328 297.2884 -9218.6194 -7434.0058 299.2686 283.7685 362.3963 30145.0375 49.8823 104.2580
ENERGY: 1500000 1.0660 1.6548 0.0000 0.0000 -10504.2399 1408.3246 0.0000 0.0000 1748.3184 -7344.8761 301.7643 -9093.1945 -7434.2748 298.1438 134.8547 237.1952 30045.4372 36.1947 89.4666
TCL: Running FEP window  10: Lambda1 0.5499999999999996 Lambda2 0.4999999999999996 [dLambda -0.04999999999999999]
TCL: Setting parameter firsttimestep to 0
TCL: Setting parameter alchLambda to 0.5499999999999996
Info: NONBONDED TABLE R-SQUARED SPACING: 0.0625
Info: NONBONDED TABLE SIZE: 705 POINTS
TCL: Setting parameter alchLambda2 to 0.4999999999999996
Info: NONBONDED TABLE R-SQUARED SPACING: 0.0625
Info: NONBONDED TABLE SIZE: 705 POINTS
TCL: Running for 1500000 steps
ETITLE: TS BOND ANGLE DIHED IMPRP ELECT VDW BOUNDARY MISC KINETIC TOTAL TEMP POTENTIAL TOTALAVG TEMPAVG PRESSURE GPRESSURE VOLUME PRESSAVG GPRESSAVG
ENERGY: 0 1.0660 1.6548 0.0000 0.0000 -10504.1424 1408.5243 0.0000 0.0000 1747.4643 -7345.4330 301.6169 -9092.8973 -7345.4330 301.6169 161.6137 237.6829 30045.4372 161.6137 237.6829
ENERGY: 300000 0.9253 3.0275 0.0000 0.0000 -10589.9988 1411.2881 0.0000 0.0000 1803.2163 -7371.5415 311.2398 -9174.7578 -7372.5578 301.4241 -285.5125 -228.1472 30331.2828 -143.5578 -94.2435
ENERGY: 600000 0.8127 2.0702 0.0000 0.0000 -10536.0943 1385.1289 0.0000 0.0000 1682.8632 -7465.2193 290.4666 -9148.0825 -7384.3048 299.8075 -432.2960 -394.9892 30283.7805 -193.1905 -143.5591
ENERGY: 900000 0.2303 2.4499 0.0000 0.0000 -10532.8567 1362.0576 0.0000 0.0000 1761.3716 -7406.7474 304.0173 -9168.1189 -7396.3837 300.4856 -423.0314 -326.3747 29686.5855 -232.0905 -173.1677
ENERGY: 1200000 1.4378 2.4762 0.0000 0.0000 -10493.0972 1410.0288 0.0000 0.0000 1785.6919 -7293.4625 308.2151 -9079.1544 -7394.1664 300.6914 70.0475 49.3811 30370.4729 -154.8048 -102.3845
ENERGY: 1500000 0.4808 2.9704 0.0000 0.0000 -10537.7023 1397.3291 0.0000 0.0000 1739.9590 -7396.9631 300.3215 -9136.9221 -7396.9254 300.4485 -390.4557 -292.3494 30439.0320 -161.8630 -105.7989
TCL: Running FEP window  11: Lambda1 0.4999999999999996 Lambda2 0.4499999999999996 [dLambda -0.04999999999999999]
TCL: Setting parameter firsttimestep to 0
TCL: Setting parameter alchLambda to 0.4999999999999996
Info: NONBONDED TABLE R-SQUARED SPACING: 0.0625
Info: NONBONDED TABLE SIZE: 705 POINTS
TCL: Setting parameter alchLambda2 to 0.4499999999999996
Info: NONBONDED TABLE R-SQUARED SPACING: 0.0625
Info: NONBONDED TABLE SIZE: 705 POINTS
TCL: Running for 1500000 steps
ETITLE: TS BOND ANGLE DIHED IMPRP ELECT VDW BOUNDARY MISC KINETIC TOTAL TEMP POTENTIAL TOTALAVG TEMPAVG PRESSURE GPRESSURE VOLUME PRESSAVG GPRESSAVG
ENERGY: 0 0.4808 2.9704 0.0000 0.0000 -10537.7023 1397.6371 0.0000 0.0000 1739.1304 -7397.4837 300.1784 -9136.6141 -7397.4837 300.1784 -376.2592 -290.2154 30439.0320 -376.2592 -290.2154
ENERGY: 300000 0.2772 1.8052 0.0000 0.0000 -10540.0946 1344.2326 0.0000 0.0000 1709.8601 -7483.9195 295.1263 -9193.7797 -7424.7767 297.6960 -634.4227 -626.3371 29712.4037 -502.2371 -455.0426
ENERGY: 600000 0.9260 1.6424 0.0000 0.0000 -10536.2124 1425.1194 0.0000 0.0000 1763.8435 -7344.6811 304.4440 -9108.5247 -7412.8542 299.4210 -152.1583 -69.1988 30613.1905 -343.9078 -290.2112
ENERGY: 900000 0.7361 5.6149 0.0000 0.0000 -10411.6525 1307.9646 0.0000 0.0000 1780.6783 -7316.6585 307.3497 -9097.3369 -7388.2605 301.5062 -1039.7139 -966.7517 30481.4022 -497.1544 -430.9441
ENERGY: 1200000 0.2849 2.7420 0.0000 0.0000 -10455.0627 1386.4936 0.0000 0.0000 1703.4878 -7362.0545 294.0264 -9065.5423 -7378.6808 301.7141 -101.6417 -3.2394 30148.9267 -399.7538 -331.7347
ENERGY: 1500000 0.4161 3.9848 0.0000 0.0000 -10602.7219 1396.3165 0.0000 0.0000 1693.1841 -7508.8203 292.2480 -9202.0044 -7389.0344 301.7757 -570.9386 -445.5308 30251.6388 -329.9673 -253.4695
TCL: Running FEP window  12: Lambda1 0.4499999999999996 Lambda2 0.39999999999999963 [dLambda -0.04999999999999999]
TCL: Setting parameter firsttimestep to 0
TCL: Setting parameter alchLambda to 0.4499999999999996
Info: NONBONDED TABLE R-SQUARED SPACING: 0.0625
Info: NONBONDED TABLE SIZE: 705 POINTS
TCL: Setting parameter alchLambda2 to 0.39999999999999963
Info: NONBONDED TABLE R-SQUARED SPACING: 0.0625
Info: NONBONDED TABLE SIZE: 705 POINTS
TCL: Running for 1500000 steps
ETITLE: TS BOND ANGLE DIHED IMPRP ELECT VDW BOUNDARY MISC KINETIC TOTAL TEMP POTENTIAL TOTALAVG TEMPAVG PRESSURE GPRESSURE VOLUME PRESSAVG GPRESSAVG
ENERGY: 0 0.4161 3.9848 0.0000 0.0000 -10602.7214 1396.5856 0.0000 0.0000 1692.3555 -7509.3793 292.1050 -9201.7348 -7509.3793 292.1050 -534.0693 -446.2151 30251.6388 -534.0693 -446.2151
ENERGY: 300000 0.6924 1.0444 0.0000 0.0000 -10549.4184 1371.5890 0.0000 0.0000 1713.7482 -7462.3444 295.7974 -9176.0926 -7416.6961 297.3628 -619.7316 -589.5463 30093.7201 -333.5726 -278.3835
ENERGY: 600000 0.5469 2.7678 0.0000 0.0000 -10540.0752 1414.2461 0.0000 0.0000 1699.0800 -7423.4343 293.2656 -9122.5144 -7430.4567 296.6732 198.7797 202.0778 29554.3233 -291.9353 -239.8279
ENERGY: 900000 1.3209 2.5485 0.0000 0.0000 -10398.2828 1297.9912 0.0000 0.0000 1771.6364 -7324.7859 305.7891 -9096.4223 -7420.6850 297.4937 -1041.1576 -1012.5834 30465.9279 -296.4269 -244.6211
ENERGY: 1200000 0.0814 1.7584 0.0000 0.0000 -10692.6197 1524.0492 0.0000 0.0000 1750.8986 -7415.8320 302.2097 -9166.7306 -7410.4186 297.5327 825.2206 857.8732 29902.0245 -155.5055 -106.2774
ENERGY: 1500000 2.0841 3.5109 0.0000 0.0000 -10562.9766 1426.2584 0.0000 0.0000 1765.7131 -7365.4100 304.7667 -9131.1231 -7405.0732 297.8237 -28.1258 5.7143 30156.6176 -180.8552 -129.0841
TCL: Running FEP window  13: Lambda1 0.39999999999999963 Lambda2 0.34999999999999964 [dLambda -0.04999999999999999]
TCL: Setting parameter firsttimestep to 0
TCL: Setting parameter alchLambda to 0.39999999999999963
Info: NONBONDED TABLE R-SQUARED SPACING: 0.0625
Info: NONBONDED TABLE SIZE: 705 POINTS
TCL: Setting parameter alchLambda2 to 0.34999999999999964
Info: NONBONDED TABLE R-SQUARED SPACING: 0.0625
Info: NONBONDED TABLE SIZE: 705 POINTS
TCL: Running for 1500000 steps
ETITLE: TS BOND ANGLE DIHED IMPRP ELECT VDW BOUNDARY MISC KINETIC TOTAL TEMP POTENTIAL TOTALAVG TEMPAVG PRESSURE GPRESSURE VOLUME PRESSAVG GPRESSAVG
ENERGY: 0 2.0840 3.5109 0.0000 0.0000 -10562.9761 1426.1507 0.0000 0.0000 1764.8651 -7366.3652 304.6203 -9131.2304 -7366.3652 304.6203 -89.1661 1.3016 30156.6176 -89.1661 1.3016
ENERGY: 300000 0.6645 1.6284 0.0000 0.0000 -10505.6317 1350.7119 0.0000 0.0000 1791.3511 -7361.2758 309.1919 -9152.6269 -7418.8085 300.7033 -703.2387 -663.6045 30510.4105 135.5922 189.3486
ENERGY: 600000 0.1038 6.7674 0.0000 0.0000 -10614.9897 1412.5123 0.0000 0.0000 1753.4184 -7442.1877 302.6446 -9195.6061 -7428.8817 298.0511 -187.4690 -96.1296 29881.8221 -19.7167 41.0117
ENERGY: 900000 0.2138 3.6371 0.0000 0.0000 -10572.4038 1399.2049 0.0000 0.0000 1698.7982 -7470.5499 293.2170 -9169.3481 -7435.6049 297.4022 -204.0545 -130.7367 29769.8731 -56.1543 -0.4455
ENERGY: 1200000 0.0579 4.3427 0.0000 0.0000 -10567.1364 1426.4139 0.0000 0.0000 1726.1901 -7410.1318 297.9449 -9136.3218 -7435.8305 297.2687 -34.1591 31.6659 30035.5676 -46.8969 8.4873
ENERGY: 1500000 0.2028 1.3459 0.0000 0.0000 -10552.6571 1383.2015 0.0000 0.0000 1725.6389 -7442.2680 297.8498 -9167.9069 -7435.5594 297.4513 -287.4691 -191.6865 29811.2037 -55.0070 -0.4896
TCL: Running FEP window  14: Lambda1 0.34999999999999964 Lambda2 0.29999999999999966 [dLambda -0.04999999999999999]
TCL: Setting parameter firsttimestep to 0
TCL: Setting parameter alchLambda to 0.34999999999999964
Info: NONBONDED TABLE R-SQUARED SPACING: 0.0625
Info: NONBONDED TABLE SIZE: 705 POINTS
TCL: Setting parameter alchLambda2 to 0.29999999999999966
Info: NONBONDED TABLE R-SQUARED SPACING: 0.0625
Info: NONBONDED TABLE SIZE: 705 POINTS
TCL: Running for 1500000 steps
ETITLE: TS BOND ANGLE DIHED IMPRP ELECT VDW BOUNDARY MISC KINETIC TOTAL TEMP POTENTIAL TOTALAVG TEMPAVG PRESSURE GPRESSURE VOLUME PRESSAVG GPRESSAVG
ENERGY: 0 0.2028 1.3459 0.0000 0.0000 -10552.6576 1383.4268 0.0000 0.0000 1724.7522 -7442.9299 297.6967 -9167.6821 -7442.9299 297.6967 -281.1842 -194.5539 29811.2037 -281.1842 -194.5539
ENERGY: 300000 1.3140 2.3497 0.0000 0.0000 -10739.2109 1522.6954 0.0000 0.0000 1743.7208 -7469.1310 300.9707 -9212.8518 -7413.4851 300.1067 471.0875 604.3744 30048.1642 -76.3894 20.9194
ENERGY: 600000 1.9573 1.6223 0.0000 0.0000 -10602.6087 1425.8039 0.0000 0.0000 1749.7945 -7423.4308 302.0191 -9173.2253 -7411.2339 300.0694 170.1086 177.8618 29636.2494 -84.2762 -13.0679
ENERGY: 900000 0.1299 5.2010 0.0000 0.0000 -10658.8823 1489.8886 0.0000 0.0000 1743.3462 -7420.3166 300.9061 -9163.6628 -7416.3174 299.8284 413.8119 527.3761 30015.4237 -153.4300 -72.2172
ENERGY: 1200000 0.2542 5.4802 0.0000 0.0000 -10540.5144 1414.1758 0.0000 0.0000 1764.7941 -7355.8101 304.6081 -9120.6042 -7410.9198 299.5641 -75.8661 -47.6849 30477.2174 -108.4908 -33.4218
ENERGY: 1500000 0.5306 1.6357 0.0000 0.0000 -10419.9957 1301.6611 0.0000 0.0000 1776.8922 -7339.2761 306.6962 -9116.1683 -7414.5261 299.7798 -1029.2316 -1018.6843 30473.9114 -168.8728 -101.2583
TCL: Running FEP window  15: Lambda1 0.29999999999999966 Lambda2 0.24999999999999967 [dLambda -0.04999999999999999]
TCL: Setting parameter firsttimestep to 0
TCL: Setting parameter alchLambda to 0.29999999999999966
Info: NONBONDED TABLE R-SQUARED SPACING: 0.0625
Info: NONBONDED TABLE SIZE: 705 POINTS
TCL: Setting parameter alchLambda2 to 0.24999999999999967
Info: NONBONDED TABLE R-SQUARED SPACING: 0.0625
Info: NONBONDED TABLE SIZE: 705 POINTS
TCL: Running for 1500000 steps
ETITLE: TS BOND ANGLE DIHED IMPRP ELECT VDW BOUNDARY MISC KINETIC TOTAL TEMP POTENTIAL TOTALAVG TEMPAVG PRESSURE GPRESSURE VOLUME PRESSAVG GPRESSAVG
ENERGY: 0 0.5306 1.6357 0.0000 0.0000 -10419.9970 1301.1258 0.0000 0.0000 1776.0440 -7340.6609 306.5498 -9116.7049 -7340.6609 306.5498 -1103.9886 -1025.8182 30473.9114 -1103.9886 -1025.8182
ENERGY: 300000 2.2111 4.6285 0.0000 0.0000 -10574.2321 1356.6250 0.0000 0.0000 1747.9726 -7462.7949 301.7046 -9210.7675 -7406.6833 301.6081 -305.0561 -254.4254 29338.1444 -272.8255 -204.6585
ENERGY: 600000 0.0193 4.2651 0.0000 0.0000 -10683.4693 1454.4179 0.0000 0.0000 1740.8464 -7483.9205 300.4746 -9224.7669 -7419.2064 301.4299 -66.4461 26.6164 30026.6948 -205.9214 -136.5155
ENERGY: 900000 0.1714 4.2222 0.0000 0.0000 -10593.0220 1445.4011 0.0000 0.0000 1769.8408 -7373.3864 305.4791 -9143.2272 -7407.2573 301.7630 -105.1682 -42.2272 30542.7617 -236.9186 -178.2916
ENERGY: 1200000 1.0678 3.7177 0.0000 0.0000 -10615.9819 1399.0736 0.0000 0.0000 1713.0012 -7499.1215 295.6685 -9212.1227 -7423.1141 301.4063 -8.9983 80.3481 29302.5357 -225.7262 -168.7501
ENERGY: 1500000 0.1173 2.3544 0.0000 0.0000 -10570.6423 1385.4428 0.0000 0.0000 1715.1352 -7467.5926 296.0368 -9182.7278 -7432.3618 300.2303 -739.6854 -695.6226 30199.4941 -282.0327 -229.0806
TCL: Running FEP window  16: Lambda1 0.24999999999999967 Lambda2 0.19999999999999968 [dLambda -0.04999999999999999]
TCL: Setting parameter firsttimestep to 0
TCL: Setting parameter alchLambda to 0.24999999999999967
Info: NONBONDED TABLE R-SQUARED SPACING: 0.0625
Info: NONBONDED TABLE SIZE: 705 POINTS
TCL: Setting parameter alchLambda2 to 0.19999999999999968
Info: NONBONDED TABLE R-SQUARED SPACING: 0.0625
Info: NONBONDED TABLE SIZE: 705 POINTS
TCL: Running for 1500000 steps
ETITLE: TS BOND ANGLE DIHED IMPRP ELECT VDW BOUNDARY MISC KINETIC TOTAL TEMP POTENTIAL TOTALAVG TEMPAVG PRESSURE GPRESSURE VOLUME PRESSAVG GPRESSAVG
ENERGY: 0 0.1173 2.3544 0.0000 0.0000 -10570.6425 1385.0465 0.0000 0.0000 1714.2953 -7468.8289 295.8918 -9183.1242 -7468.8289 295.8918 -775.4098 -700.8746 30199.4941 -775.4098 -700.8746
ENERGY: 300000 0.4876 2.9861 0.0000 0.0000 -10670.3271 1400.2870 0.0000 0.0000 1761.4222 -7505.1442 304.0261 -9266.5664 -7477.1771 296.8713 -301.3272 -267.1269 29636.3593 -302.1312 -266.1249
ENERGY: 600000 0.0627 2.2571 0.0000 0.0000 -10503.3424 1329.4137 0.0000 0.0000 1771.5853 -7400.0236 305.7802 -9171.6089 -7460.7260 298.7031 -883.2723 -751.1576 30082.7385 -465.6129 -411.9421
ENERGY: 900000 0.2839 4.0363 0.0000 0.0000 -10687.3723 1477.7971 0.0000 0.0000 1732.7920 -7472.4630 299.0844 -9205.2550 -7452.7080 299.4060 403.2097 478.3299 29578.2499 -94.8271 -44.6140
ENERGY: 1200000 0.0211 2.2840 0.0000 0.0000 -10603.6900 1456.7735 0.0000 0.0000 1715.1251 -7429.4864 296.0351 -9144.6115 -7425.3167 300.6451 231.8976 315.7093 29866.2240 -120.5499 -60.5871
ENERGY: 1500000 0.7486 3.8535 0.0000 0.0000 -10657.6870 1479.8477 0.0000 0.0000 1758.6516 -7414.5856 303.5478 -9173.2372 -7421.2163 300.3652 649.1839 691.1504 29589.7417 -130.2273 -64.7836
TCL: Running FEP window  17: Lambda1 0.19999999999999968 Lambda2 0.1499999999999997 [dLambda -0.04999999999999999]
TCL: Setting parameter firsttimestep to 0
TCL: Setting parameter alchLambda to 0.19999999999999968
Info: NONBONDED TABLE R-SQUARED SPACING: 0.0625
Info: NONBONDED TABLE SIZE: 705 POINTS
TCL: Setting parameter alchLambda2 to 0.1499999999999997
Info: NONBONDED TABLE R-SQUARED SPACING: 0.0625
Info: NONBONDED TABLE SIZE: 705 POINTS
TCL: Running for 1500000 steps
ETITLE: TS BOND ANGLE DIHED IMPRP ELECT VDW BOUNDARY MISC KINETIC TOTAL TEMP POTENTIAL TOTALAVG TEMPAVG PRESSURE GPRESSURE VOLUME PRESSAVG GPRESSAVG
ENERGY: 0 0.7486 3.8535 0.0000 0.0000 -10657.6860 1479.5878 0.0000 0.0000 1757.7770 -7415.7192 303.3969 -9173.4961 -7415.7192 303.3969 619.6311 689.2736 29589.7417 619.6311 689.2736
ENERGY: 300000 1.1486 2.2136 0.0000 0.0000 -10559.2141 1414.5775 0.0000 0.0000 1703.1476 -7438.1268 293.9677 -9141.2745 -7409.0471 299.6582 -160.9659 -198.3214 30379.5743 -1.5006 23.4693
ENERGY: 600000 0.2025 3.3143 0.0000 0.0000 -10431.0256 1280.6842 0.0000 0.0000 1754.5505 -7392.2741 302.8400 -9146.8246 -7413.6128 299.3145 -1004.0636 -991.7197 30054.2627 -169.6128 -131.1050
ENERGY: 900000 0.2227 1.1458 0.0000 0.0000 -10716.4281 1463.0242 0.0000 0.0000 1725.5011 -7526.5343 297.8260 -9252.0354 -7414.6380 299.8766 79.9848 98.5212 29737.5913 -155.6515 -121.9725
ENERGY: 1200000 0.8510 2.5926 0.0000 0.0000 -10471.0393 1357.9730 0.0000 0.0000 1715.4925 -7394.1301 296.0985 -9109.6226 -7417.2262 299.1471 -466.4887 -405.9860 30106.7888 -79.3981 -41.5138
ENERGY: 1500000 0.3154 2.6281 0.0000 0.0000 -10471.3347 1364.7091 0.0000 0.0000 1693.1625 -7410.5195 292.2443 -9103.6820 -7412.2789 299.4191 -296.9060 -223.9689 29796.5319 -171.0267 -133.3078
TCL: Running FEP window  18: Lambda1 0.1499999999999997 Lambda2 0.09999999999999969 [dLambda -0.05 ]
TCL: Setting parameter firsttimestep to 0
TCL: Setting parameter alchLambda to 0.1499999999999997
Info: NONBONDED TABLE R-SQUARED SPACING: 0.0625
Info: NONBONDED TABLE SIZE: 705 POINTS
TCL: Setting parameter alchLambda2 to 0.09999999999999969
Info: NONBONDED TABLE R-SQUARED SPACING: 0.0625
Info: NONBONDED TABLE SIZE: 705 POINTS
TCL: Running for 1500000 steps
ETITLE: TS BOND ANGLE DIHED IMPRP ELECT VDW BOUNDARY MISC KINETIC TOTAL TEMP POTENTIAL TOTALAVG TEMPAVG PRESSURE GPRESSURE VOLUME PRESSAVG GPRESSAVG
ENERGY: 0 0.3154 2.6281 0.0000 0.0000 -10471.3332 1364.7325 0.0000 0.0000 1692.3134 -7411.3438 292.0977 -9103.6572 -7411.3438 292.0977 -315.2631 -228.8658 29796.5319 -315.2631 -228.8658
ENERGY: 300000 1.1751 4.4897 0.0000 0.0000 -10490.3054 1326.6142 0.0000 0.0000 1703.7527 -7454.2738 294.0722 -9158.0265 -7428.7996 297.9404 -851.1246 -777.1406 29820.7055 -395.3115 -337.2768
ENERGY: 600000 0.9783 1.5657 0.0000 0.0000 -10607.2880 1442.0786 0.0000 0.0000 1736.3317 -7426.3336 299.6954 -9162.6654 -7413.5420 297.4134 -114.0227 -0.3783 30082.2977 -250.6596 -186.0214
ENERGY: 900000 0.3939 2.3172 0.0000 0.0000 -10641.8542 1439.2671 0.0000 0.0000 1755.9350 -7443.9409 303.0790 -9199.8759 -7421.5273 297.8121 -105.9326 -25.6053 29878.9961 -257.3101 -196.9957
ENERGY: 1200000 2.2352 1.2450 0.0000 0.0000 -10560.3812 1496.0941 0.0000 0.0000 1743.2802 -7317.5268 300.8947 -9060.8070 -7411.9492 297.9154 426.7023 517.6088 30311.5076 -169.9961 -109.6303
ENERGY: 1500000 0.6686 2.2793 0.0000 0.0000 -10560.0888 1442.1278 0.0000 0.0000 1785.2532 -7329.7600 308.1393 -9115.0131 -7402.8086 299.3798 269.9989 282.2625 29973.6136 -155.4231 -96.9687
TCL: Running FEP window  19: Lambda1 0.09999999999999969 Lambda2 0.049999999999999684 [dLambda -0.05 ]
TCL: Setting parameter firsttimestep to 0
TCL: Setting parameter alchLambda to 0.09999999999999969
Info: NONBONDED TABLE R-SQUARED SPACING: 0.0625
Info: NONBONDED TABLE SIZE: 705 POINTS
TCL: Setting parameter alchLambda2 to 0.049999999999999684
Info: NONBONDED TABLE R-SQUARED SPACING: 0.0625
Info: NONBONDED TABLE SIZE: 705 POINTS
TCL: Running for 1500000 steps
ETITLE: TS BOND ANGLE DIHED IMPRP ELECT VDW BOUNDARY MISC KINETIC TOTAL TEMP POTENTIAL TOTALAVG TEMPAVG PRESSURE GPRESSURE VOLUME PRESSAVG GPRESSAVG
ENERGY: 0 0.6686 2.2793 0.0000 0.0000 -10560.0890 1442.1122 0.0000 0.0000 1784.4092 -7330.6196 307.9937 -9115.0289 -7330.6196 307.9937 208.1835 281.7226 29973.6136 208.1835 281.7226
ENERGY: 300000 0.6573 2.3709 0.0000 0.0000 -10485.2029 1307.2401 0.0000 0.0000 1721.2811 -7453.6535 297.0976 -9174.9346 -7408.9202 300.5136 -1051.2344 -988.3149 30244.4662 -214.8932 -147.8574
ENERGY: 600000 1.3413 3.1641 0.0000 0.0000 -10574.9448 1422.5449 0.0000 0.0000 1745.1523 -7402.7423 301.2178 -9147.8946 -7411.1884 300.9318 -66.1490 39.8946 30023.0438 -183.7145 -109.9384
ENERGY: 900000 2.0841 4.8066 0.0000 0.0000 -10456.7496 1291.3655 0.0000 0.0000 1742.0834 -7416.4101 300.6881 -9158.4935 -7416.1929 300.2559 -1070.1433 -1044.0286 30039.6408 -279.1241 -217.3708
ENERGY: 1200000 0.3963 1.8939 0.0000 0.0000 -10655.2817 1512.5961 0.0000 0.0000 1730.5294 -7409.8661 298.6939 -9140.3955 -7416.5285 299.5051 608.4469 736.5014 30136.7015 -155.6841 -89.1960
ENERGY: 1500000 1.3790 3.3928 0.0000 0.0000 -10605.5873 1405.7707 0.0000 0.0000 1805.4136 -7389.6312 311.6191 -9195.0447 -7420.0053 300.0464 -289.9469 -155.3795 29884.6135 -181.9251 -117.4560
TCL: Running FEP window  20: Lambda1 0.049999999999999684 Lambda2 0.0    [dLambda -0.049999999999999684]
TCL: Setting parameter firsttimestep to 0
TCL: Setting parameter alchLambda to 0.049999999999999684
Info: NONBONDED TABLE R-SQUARED SPACING: 0.0625
Info: NONBONDED TABLE SIZE: 705 POINTS
TCL: Setting parameter alchLambda2 to 0.0
Info: NONBONDED TABLE R-SQUARED SPACING: 0.0625
Info: NONBONDED TABLE SIZE: 705 POINTS
TCL: Running for 1500000 steps
ETITLE: TS BOND ANGLE DIHED IMPRP ELECT VDW BOUNDARY MISC KINETIC TOTAL TEMP POTENTIAL TOTALAVG TEMPAVG PRESSURE GPRESSURE VOLUME PRESSAVG GPRESSAVG
ENERGY: 0 1.3790 3.3928 0.0000 0.0000 -10605.5869 1405.9737 0.0000 0.0000 1804.5758 -7390.2656 311.4745 -9194.8413 -7390.2656 311.4745 -238.5351 -158.0222 29884.6135 -238.5351 -158.0222
ENERGY: 300000 0.0309 3.2922 0.0000 0.0000 -10406.5800 1332.2756 0.0000 0.0000 1762.5331 -7308.4481 304.2178 -9070.9812 -7374.6392 301.0979 -602.2329 -571.5580 30268.7099 -310.7853 -245.8251
ENERGY: 600000 1.3111 2.7158 0.0000 0.0000 -10728.5392 1474.2622 0.0000 0.0000 1739.4145 -7510.8356 300.2275 -9250.2501 -7419.7535 299.4451 290.1633 388.7745 29480.8812 -77.6345 -5.0650
ENERGY: 900000 1.0731 6.8160 0.0000 0.0000 -10670.1004 1431.1257 0.0000 0.0000 1715.1371 -7515.9485 296.0371 -9231.0856 -7425.0664 298.3358 -276.3008 -211.2601 30012.0980 -4.2698 57.9514
ENERGY: 1200000 0.9252 2.3477 0.0000 0.0000 -10480.9618 1413.0746 0.0000 0.0000 1719.1179 -7345.4964 296.7242 -9064.6143 -7404.2160 299.0462 18.0692 42.2925 30246.0788 -53.5513 5.5404
ENERGY: 1500000 0.1898 4.8310 0.0000 0.0000 -10630.5744 1508.1013 0.0000 0.0000 1747.0454 -7370.4069 301.5446 -9117.4523 -7397.9696 300.2743 674.6487 753.1076 29924.2021 -81.4535 -15.7184
TCL: Exiting due to exit command.
