Info: SIMULATION PARAMETERS:
Info: TIMESTEP               2
Info: NUMBER OF STEPS        0
Info: STEPS PER CYCLE        10
Info: PERIODIC CELL BASIS 1  31.285 0 0
Info: PERIODIC CELL BASIS 2  0 31.1883 0
Info: PERIODIC CELL BASIS 3  0 0 30.2303
Info: PERIODIC CELL CENTER   0 0 0
Info: WRAPPING WATERS AROUND PERIODIC BOUNDARIES ON OUTPUT.
Info: WRAPPING ALL CLUSTERS AROUND PERIODIC BOUNDARIES ON OUTPUT.
Info: FIRST LDB TIMESTEP     50
Info: LAST LDB TIMESTEP     -1
Info: HOM BACKGROUND SCALING 1
Info: PME BACKGROUND SCALING 1
Info: MIN ATOMS PER PATCH    40
Info: EMPTY PATCH LOAD       40 ATOMS
Info: VELOCITY FILE          mobley_9209581_equil.vel
Info: CENTER OF MASS MOVING INITIALLY? NO
Info: DIELECTRIC             1
Info: EXCLUDE                SCALED ONE-FOUR
Info: 1-4 ELECTROSTATICS SCALED BY 0.833333
Info: MODIFIED 1-4 VDW PARAMETERS WILL BE USED
Info: DCD FILENAME           mobley_9209581_prod.dcd
Info: DCD FREQUENCY          100000
Info: DCD FIRST STEP         100000
Info: DCD FILE WILL CONTAIN UNIT CELL DATA
Info: XST FILENAME           mobley_9209581_prod.xst
Info: XST FREQUENCY          100000
Info: NO VELOCITY DCD OUTPUT
Info: NO FORCE DCD OUTPUT
Info: OUTPUT FILENAME        mobley_9209581_prod
Info: BINARY OUTPUT FILES WILL BE USED
Info: RESTART FILENAME       mobley_9209581_prod.restart
Info: RESTART FREQUENCY      100000
Info: BINARY RESTART FILES WILL BE USED
Info: CUTOFF                 9
Info: PAIRLIST DISTANCE      11
Info: PAIRLIST SHRINK RATE   0.01
Info: PAIRLIST GROW RATE     0.01
Info: PAIRLIST TRIGGER       0.3
Info: PAIRLISTS PER CYCLE    2
Info: PAIRLISTS ENABLED
Info: MARGIN                 2
Info: HYDROGEN GROUP CUTOFF  2.5
Info: PATCH DIMENSION        15.5
Info: ENERGY OUTPUT STEPS    100000
Info: ENERGY EVALUATION STEPS    100000
Info: OUTPUT ENERGY PRECISION 4
Info: CROSSTERM ENERGY INCLUDED IN DIHEDRAL
Info: TIMING OUTPUT STEPS    1000000
Info: PRESSURE OUTPUT STEPS  100000
Info: ALCHEMICAL FEP ON
Info: FEP CURRENT LAMBDA VALUE     0
Info: FEP COMPARISON LAMBDA VALUE  0.05
Info: FEP INTRA-ALCHEMICAL NON-BONDED INTERACTIONS WILL BE RETAINED
Info: FEP INTRA-ALCHEMICAL BONDED INTERACTIONS WILL BE RETAINED
Info: FEP VDW SHIFTING COEFFICIENT 5
Info: FEP ELEC. ACTIVE FOR ANNIHILATED PARTICLES BETWEEN LAMBDA = 0 AND LAMBDA = 0.5
Info: FEP ELEC. ACTIVE FOR EXNIHILATED PARTICLES BETWEEN LAMBDA = 0.5 AND LAMBDA = 1
Info: FEP VDW ACTIVE FOR ANNIHILATED PARTICLES BETWEEN LAMBDA = 0 AND LAMBDA = 1
Info: FEP VDW ACTIVE FOR EXNIHILATED PARTICLES BETWEEN LAMBDA = 0 AND LAMBDA = 1
Info: FEP BOND ACTIVE FOR ANNIHILATED PARTICLES BETWEEN LAMBDA = 1 AND LAMBDA = 1
Info: FEP BOND ACTIVE FOR EXNIHILATED PARTICLES BETWEEN LAMBDA = 0 AND LAMBDA = 0
Info: LANGEVIN DYNAMICS ACTIVE
Info: LANGEVIN TEMPERATURE   300
Info: LANGEVIN USING BBK INTEGRATOR
Info: LANGEVIN DAMPING COEFFICIENT IS 1 INVERSE PS
Info: LANGEVIN DYNAMICS APPLIED TO HYDROGENS
Info: LANGEVIN PISTON PRESSURE CONTROL ACTIVE
Info:        TARGET PRESSURE IS 1.01325 BAR
Info:     OSCILLATION PERIOD IS 50 FS
Info:             DECAY TIME IS 25 FS
Info:     PISTON TEMPERATURE IS 300 K
Info:       PRESSURE CONTROL IS GROUP-BASED
Info:    INITIAL STRAIN RATE IS 6.80746e-05 6.80746e-05 6.80746e-05
Info:       CELL FLUCTUATION IS ISOTROPIC
Info: PARTICLE MESH EWALD (PME) ACTIVE
Info: PME TOLERANCE               1e-06
Info: PME EWALD COEFFICIENT       0.348832
Info: PME INTERPOLATION ORDER     4
Info: PME GRID DIMENSIONS         32 32 32
Info: PME MAXIMUM GRID SPACING    1
Info: PME CALCULATION WILL BE PERFORMED ON GPU
Info: FULL ELECTROSTATIC EVALUATION FREQUENCY      2
Info: USING VERLET I (r-RESPA) MTS SCHEME.
Info: C1 SPLITTING OF LONG RANGE ELECTROSTATICS
Info: PLACING ATOMS IN PATCHES BY HYDROGEN GROUPS
Info: RIGID BONDS TO HYDROGEN : ALL
Info:         ERROR TOLERANCE : 1e-08
Info:          MAX ITERATIONS : 100
Info: RIGID WATER USING SETTLE ALGORITHM
Info: RANDOM NUMBER SEED     1742596452
Info: USE HYDROGEN BONDS?    NO
Info: Using AMBER format force field!
Info: AMBER PARM FILE        mobley_9209581.prmtop
Info: COORDINATE PDB         mobley_9209581.pdb
Info: Exclusions will be read from PARM file!
Info: SCNB (VDW SCALING)     2
Info: USING ARITHMETIC MEAN TO COMBINE L-J SIGMA PARAMETERS
Info: BINARY COORDINATES     mobley_9209581_equil.coor
Info: SUMMARY OF PARAMETERS:
Info: 4 BONDS
Info: 3 ANGLES
Info:   3 HARMONIC
Info:   0 COSINE-BASED
Info: 1 DIHEDRAL
Info: 0 IMPROPER
Info: 0 CROSSTERM
Info: 0 VDW
Info: 15 VDW_PAIRS
Info: 0 NBTHOLE_PAIRS
Info: To read alchdata from file: mobley_9209581.pdb
Info: To read alchflag data from column: 5
Info: STRUCTURE SUMMARY:
Info: 2905 ATOMS
Info: 2904 BONDS
Info: 21 ANGLES
Info: 18 DIHEDRALS
Info: 0 IMPROPERS
Info: 0 CROSSTERMS
Info: 2943 EXCLUSIONS
Info: 2901 RIGID BONDS
Info: ALCH: 0 ATOMS TO DISAPPEAR IN FINAL STATE
Info: ALCH: 13 ATOMS TO APPEAR IN FINAL STATE
Info: 5814 DEGREES OF FREEDOM
Info: 968 HYDROGEN GROUPS
Info: 4 ATOMS IN LARGEST HYDROGEN GROUP
Info: 968 MIGRATION GROUPS
Info: 4 ATOMS IN LARGEST MIGRATION GROUP
Info: TOTAL MASS = 17426.5 amu
Info: TOTAL CHARGE = 0.000399988 e
Info: MASS DENSITY = 0.981069 g/cm^3
Info: ATOM DENSITY = 0.0984862 atoms/A^3
Info: ADDED 0 IMPLICIT EXCLUSIONS
Info: NONBONDED TABLE R-SQUARED SPACING: 0.0625
Info: NONBONDED TABLE SIZE: 705 POINTS
Info: REDUCING NUMBER OF PATCHES TO IMPROVE LOAD BALANCE
Info: REMOVING COM VELOCITY 0.153925 0.0624425 -0.0450428
Info: Use 3D box decompostion in PME FFT.
Info: Updated CUDA force table with 4096 elements.
Info: Updated CUDA LJ table with 5 x 5 elements.
Info: Found 16 unique exclusion lists needing 28 bytes
TCL: Running for 1500000 steps
ETITLE: TS BOND ANGLE DIHED IMPRP ELECT VDW BOUNDARY MISC KINETIC TOTAL TEMP POTENTIAL TOTALAVG TEMPAVG PRESSURE GPRESSURE VOLUME PRESSAVG GPRESSAVG
ENERGY: 0 0.3525 7.3229 1.0766 0.0000 -10593.0731 1486.2001 0.0000 0.0000 1743.8880 -7354.2330 301.8797 -9098.1210 -7354.2330 301.8797 704.6041 787.8169 29496.5136 704.6041 787.8169
ENERGY: 300000 0.1907 4.9383 1.7189 0.0000 -10554.5008 1459.2280 0.0000 0.0000 1700.9771 -7387.4479 294.4515 -9088.4250 -7351.6633 300.0873 281.9557 284.6673 29653.7747 124.1082 158.2736
ENERGY: 600000 1.8146 5.9544 1.3575 0.0000 -10452.2437 1335.3119 0.0000 0.0000 1773.2791 -7334.5262 306.9675 -9107.8053 -7343.7890 300.8332 -550.9388 -442.6293 29452.1561 -87.8139 -31.1881
ENERGY: 900000 0.2861 3.3292 2.4804 0.0000 -10573.4074 1454.7606 0.0000 0.0000 1757.3249 -7355.2262 304.2057 -9112.5510 -7349.6442 301.1986 316.6186 393.9766 29596.7413 2.1996 62.8619
ENERGY: 1200000 0.1536 6.2786 0.2387 0.0000 -10460.9162 1388.4786 0.0000 0.0000 1756.6352 -7309.1315 304.0864 -9065.7667 -7339.7321 301.7967 -289.3271 -271.8261 30239.0515 -12.4746 51.5819
ENERGY: 1500000 0.7049 4.9385 1.1045 0.0000 -10415.1830 1426.1359 0.0000 0.0000 1685.2758 -7297.0235 291.7335 -8982.2993 -7348.2394 299.6672 525.3271 566.8336 29609.1350 5.7760 70.6895
TCL: Running FEP window   2: Lambda1 0.05   Lambda2 0.1    [dLambda 0.05  ]
TCL: Setting parameter firsttimestep to 0
TCL: Setting parameter alchLambda to 0.05
Info: NONBONDED TABLE R-SQUARED SPACING: 0.0625
Info: NONBONDED TABLE SIZE: 705 POINTS
TCL: Setting parameter alchLambda2 to 0.1
Info: NONBONDED TABLE R-SQUARED SPACING: 0.0625
Info: NONBONDED TABLE SIZE: 705 POINTS
TCL: Running for 1500000 steps
ETITLE: TS BOND ANGLE DIHED IMPRP ELECT VDW BOUNDARY MISC KINETIC TOTAL TEMP POTENTIAL TOTALAVG TEMPAVG PRESSURE GPRESSURE VOLUME PRESSAVG GPRESSAVG
ENERGY: 0 0.7049 4.9385 1.1045 0.0000 -10415.1835 1426.7697 0.0000 0.0000 1684.4265 -7297.2394 291.5865 -8981.6659 -7297.2394 291.5865 483.2818 569.0110 29609.1350 483.2818 569.0110
ENERGY: 300000 0.7276 5.1180 0.4488 0.0000 -10570.2048 1480.9653 0.0000 0.0000 1712.3499 -7370.5953 296.4203 -9082.9452 -7342.2798 295.7750 310.7227 374.5869 30002.7642 247.9117 293.0005
ENERGY: 600000 1.6472 7.1061 1.0128 0.0000 -10478.8301 1408.1262 0.0000 0.0000 1716.7593 -7344.1786 297.1835 -9060.9379 -7360.6823 297.0553 -176.1315 -154.2268 30257.6245 -184.7609 -141.7787
ENERGY: 900000 1.1903 8.0600 0.2576 0.0000 -10475.8118 1364.7980 0.0000 0.0000 1777.6130 -7323.8931 307.7178 -9101.5061 -7367.3551 298.3742 -355.3930 -280.3020 29414.8284 -260.7307 -217.1464
ENERGY: 1200000 0.3235 5.2522 0.3604 0.0000 -10674.5816 1523.2051 0.0000 0.0000 1681.1274 -7464.3130 291.0154 -9145.4404 -7370.4840 298.5006 593.2325 686.9619 29690.9046 -266.8952 -211.0199
ENERGY: 1500000 1.3816 5.3679 0.4364 0.0000 -10536.5022 1422.7725 0.0000 0.0000 1735.4861 -7371.0578 300.4253 -9106.5439 -7366.7511 299.4161 25.2199 154.9783 29564.8822 -278.1500 -214.4325
TCL: Running FEP window   3: Lambda1 0.1    Lambda2 0.15000000000000002 [dLambda 0.05000000000000002]
TCL: Setting parameter firsttimestep to 0
TCL: Setting parameter alchLambda to 0.1
Info: NONBONDED TABLE R-SQUARED SPACING: 0.0625
Info: NONBONDED TABLE SIZE: 705 POINTS
TCL: Setting parameter alchLambda2 to 0.15000000000000002
Info: NONBONDED TABLE R-SQUARED SPACING: 0.0625
Info: NONBONDED TABLE SIZE: 705 POINTS
TCL: Running for 1500000 steps
ETITLE: TS BOND ANGLE DIHED IMPRP ELECT VDW BOUNDARY MISC KINETIC TOTAL TEMP POTENTIAL TOTALAVG TEMPAVG PRESSURE GPRESSURE VOLUME PRESSAVG GPRESSAVG
ENERGY: 0 1.3816 5.3679 0.4364 0.0000 -10536.5019 1423.8600 0.0000 0.0000 1734.6030 -7370.8530 300.2724 -9105.4560 -7370.8530 300.2724 72.4986 162.2113 29564.8822 72.4986 162.2113
ENERGY: 300000 1.8406 5.9381 0.6354 0.0000 -10545.4484 1428.6695 0.0000 0.0000 1758.0799 -7350.2849 304.3364 -9108.3648 -7379.1427 299.4600 -193.3085 -179.2396 30204.8128 -184.9148 -135.4129
ENERGY: 600000 0.7580 4.3524 0.3123 0.0000 -10396.7429 1354.5231 0.0000 0.0000 1735.6232 -7301.1740 300.4490 -9036.7971 -7372.0436 300.1169 -559.1346 -469.3120 30330.4373 -206.6549 -146.5197
ENERGY: 900000 4.3654 8.0668 0.6580 0.0000 -10546.2240 1419.1477 0.0000 0.0000 1735.1261 -7378.8600 300.3630 -9113.9861 -7373.6780 300.1419 -84.3298 41.9187 29622.9688 -170.7787 -103.4239
ENERGY: 1200000 0.2075 8.9275 1.5637 0.0000 -10619.3869 1411.9872 0.0000 0.0000 1664.8081 -7531.8929 288.1904 -9196.7010 -7391.8372 298.3278 -204.9205 -211.9437 29296.8306 -188.3002 -130.4273
ENERGY: 1500000 2.9930 5.9816 1.7693 0.0000 -10498.1197 1408.6545 0.0000 0.0000 1792.0962 -7286.6250 310.2249 -9078.7212 -7376.0938 299.8549 -348.3030 -266.2455 30189.4055 -106.7635 -48.4898
TCL: Running FEP window   4: Lambda1 0.15000000000000002 Lambda2 0.2    [dLambda 0.04999999999999999]
TCL: Setting parameter firsttimestep to 0
TCL: Setting parameter alchLambda to 0.15000000000000002
Info: NONBONDED TABLE R-SQUARED SPACING: 0.0625
Info: NONBONDED TABLE SIZE: 705 POINTS
TCL: Setting parameter alchLambda2 to 0.2
Info: NONBONDED TABLE R-SQUARED SPACING: 0.0625
Info: NONBONDED TABLE SIZE: 705 POINTS
TCL: Running for 1500000 steps
ETITLE: TS BOND ANGLE DIHED IMPRP ELECT VDW BOUNDARY MISC KINETIC TOTAL TEMP POTENTIAL TOTALAVG TEMPAVG PRESSURE GPRESSURE VOLUME PRESSAVG GPRESSAVG
ENERGY: 0 2.9930 5.9816 1.7693 0.0000 -10498.1191 1410.0809 0.0000 0.0000 1791.2297 -7286.0644 310.0749 -9077.2942 -7286.0644 310.0749 -337.0784 -258.7887 30189.4055 -337.0784 -258.7887
ENERGY: 300000 1.0287 3.7604 0.4943 0.0000 -10576.9712 1468.7313 0.0000 0.0000 1771.6714 -7331.2851 306.6892 -9102.9565 -7335.6191 305.7564 349.0041 431.5583 29771.5822 111.8055 183.8527
ENERGY: 600000 0.5006 6.5846 0.7966 0.0000 -10351.5288 1293.2157 0.0000 0.0000 1738.5955 -7311.8358 300.9635 -9050.4313 -7333.2024 303.5460 -1117.4083 -1069.0714 30536.9779 86.3317 143.7514
ENERGY: 900000 1.9429 7.3263 1.3794 0.0000 -10521.9037 1411.9512 0.0000 0.0000 1722.3609 -7376.9430 298.1532 -9099.3040 -7351.6570 301.1257 161.0201 177.8706 29360.7322 171.7764 221.3104
ENERGY: 1200000 1.9025 4.3328 0.7002 0.0000 -10381.1302 1349.9678 0.0000 0.0000 1745.5629 -7278.6641 302.1697 -9024.2271 -7342.8145 301.0553 -431.8276 -366.0714 29882.5173 49.0297 104.2510
ENERGY: 1500000 2.6530 5.2680 2.1460 0.0000 -10561.5404 1441.6369 0.0000 0.0000 1718.0294 -7391.8071 297.4034 -9109.8365 -7349.2292 300.0837 -123.4105 -54.0545 30085.2223 -34.5459 21.7087
TCL: Running FEP window   5: Lambda1 0.2    Lambda2 0.25   [dLambda 0.04999999999999999]
TCL: Setting parameter firsttimestep to 0
TCL: Setting parameter alchLambda to 0.2
Info: NONBONDED TABLE R-SQUARED SPACING: 0.0625
Info: NONBONDED TABLE SIZE: 705 POINTS
TCL: Setting parameter alchLambda2 to 0.25
Info: NONBONDED TABLE R-SQUARED SPACING: 0.0625
Info: NONBONDED TABLE SIZE: 705 POINTS
TCL: Running for 1500000 steps
ETITLE: TS BOND ANGLE DIHED IMPRP ELECT VDW BOUNDARY MISC KINETIC TOTAL TEMP POTENTIAL TOTALAVG TEMPAVG PRESSURE GPRESSURE VOLUME PRESSAVG GPRESSAVG
ENERGY: 0 2.6530 5.2680 2.1460 0.0000 -10561.5408 1441.8715 0.0000 0.0000 1717.1761 -7392.4262 297.2557 -9109.6023 -7392.4262 297.2557 -141.7213 -48.8375 30085.2223 -141.7213 -48.8375
ENERGY: 300000 0.3458 6.2934 0.4934 0.0000 -10582.3017 1446.4867 0.0000 0.0000 1785.4728 -7343.2096 309.0784 -9128.6824 -7354.9129 300.9165 329.0389 346.1448 29588.8237 -167.8251 -86.9535
ENERGY: 600000 1.0493 3.8130 1.5237 0.0000 -10349.0573 1307.4633 0.0000 0.0000 1730.0014 -7305.2066 299.4759 -9035.2080 -7348.3734 302.9557 -1042.5979 -944.7406 30279.9481 -319.9213 -243.5810
ENERGY: 900000 0.9187 3.1314 0.3390 0.0000 -10397.1236 1356.7908 0.0000 0.0000 1808.8524 -7227.0913 313.1255 -9035.9437 -7339.2318 303.6917 41.6169 102.8518 29109.2148 -199.2555 -123.6018
ENERGY: 1200000 0.5897 5.7836 0.6662 0.0000 -10527.4606 1443.8053 0.0000 0.0000 1772.7134 -7303.9023 306.8696 -9076.6158 -7332.1860 303.4950 215.6376 297.7698 29850.8167 -204.2108 -133.7927
ENERGY: 1500000 0.4045 3.4584 0.9466 0.0000 -10406.1479 1400.0204 0.0000 0.0000 1757.4842 -7243.8338 304.2333 -9001.3179 -7322.1376 303.5908 120.5482 117.9758 30048.6757 -108.3637 -35.3029
TCL: Running FEP window   6: Lambda1 0.25   Lambda2 0.3    [dLambda 0.04999999999999999]
TCL: Setting parameter firsttimestep to 0
TCL: Setting parameter alchLambda to 0.25
Info: NONBONDED TABLE R-SQUARED SPACING: 0.0625
Info: NONBONDED TABLE SIZE: 705 POINTS
TCL: Setting parameter alchLambda2 to 0.3
Info: NONBONDED TABLE R-SQUARED SPACING: 0.0625
Info: NONBONDED TABLE SIZE: 705 POINTS
TCL: Running for 1500000 steps
ETITLE: TS BOND ANGLE DIHED IMPRP ELECT VDW BOUNDARY MISC KINETIC TOTAL TEMP POTENTIAL TOTALAVG TEMPAVG PRESSURE GPRESSURE VOLUME PRESSAVG GPRESSAVG
ENERGY: 0 0.4045 3.4584 0.9466 0.0000 -10406.1475 1399.7854 0.0000 0.0000 1756.6369 -7244.9155 304.0867 -9001.5524 -7244.9155 304.0867 42.5261 119.2826 30048.6757 42.5261 119.2826
ENERGY: 300000 0.4213 3.8465 1.3507 0.0000 -10658.2486 1508.6280 0.0000 0.0000 1746.2235 -7397.7786 302.2840 -9144.0021 -7351.8974 302.5627 747.6667 766.9435 29458.0581 124.8592 186.5686
ENERGY: 600000 1.0839 5.1490 1.0174 0.0000 -10469.2758 1405.1202 0.0000 0.0000 1704.5209 -7352.3843 295.0650 -9056.9052 -7336.9650 301.1988 -166.3601 -119.6520 30192.7953 89.7102 146.8128
ENERGY: 900000 0.5294 4.0608 2.7536 0.0000 -10449.1309 1395.6173 0.0000 0.0000 1770.7328 -7275.4371 306.5267 -9046.1699 -7336.1993 301.8673 -43.4531 12.9540 29572.8511 42.3907 102.4977
ENERGY: 1200000 1.2798 3.7534 0.9567 0.0000 -10462.8898 1343.7821 0.0000 0.0000 1711.1426 -7401.9752 296.2113 -9113.1178 -7350.1636 300.4886 -629.5664 -546.2952 29777.8558 -75.7162 -18.0936
ENERGY: 1500000 0.2267 3.6791 0.5930 0.0000 -10424.0909 1312.1702 0.0000 0.0000 1695.2028 -7412.2192 293.4520 -9107.4220 -7346.5871 301.1197 -749.8134 -743.0768 29842.3466 -119.6438 -68.2511
TCL: Running FEP window   7: Lambda1 0.3    Lambda2 0.35   [dLambda 0.04999999999999999]
TCL: Setting parameter firsttimestep to 0
TCL: Setting parameter alchLambda to 0.3
Info: NONBONDED TABLE R-SQUARED SPACING: 0.0625
Info: NONBONDED TABLE SIZE: 705 POINTS
TCL: Setting parameter alchLambda2 to 0.35
Info: NONBONDED TABLE R-SQUARED SPACING: 0.0625
Info: NONBONDED TABLE SIZE: 705 POINTS
TCL: Running for 1500000 steps
ETITLE: TS BOND ANGLE DIHED IMPRP ELECT VDW BOUNDARY MISC KINETIC TOTAL TEMP POTENTIAL TOTALAVG TEMPAVG PRESSURE GPRESSURE VOLUME PRESSAVG GPRESSAVG
ENERGY: 0 0.2267 3.6791 0.5930 0.0000 -10424.0902 1312.2623 0.0000 0.0000 1694.3252 -7413.0039 293.3000 -9107.3291 -7413.0039 293.3000 -824.5050 -738.8598 29842.3466 -824.5050 -738.8598
ENERGY: 300000 0.5544 4.8889 1.6009 0.0000 -10646.8526 1469.1902 0.0000 0.0000 1738.9040 -7431.7142 301.0170 -9170.6182 -7379.7685 296.8551 483.6418 498.5830 29499.5633 -226.2710 -166.9843
ENERGY: 600000 0.2267 6.8038 2.4811 0.0000 -10638.1252 1473.3296 0.0000 0.0000 1747.6695 -7407.6145 302.5343 -9155.2840 -7365.1362 297.6991 315.8457 375.2824 29638.4441 18.8464 87.1963
ENERGY: 900000 1.0528 5.2445 0.9781 0.0000 -10380.6751 1306.3979 0.0000 0.0000 1793.7104 -7273.2914 310.5043 -9067.0018 -7358.5064 298.6993 -724.3297 -713.9015 30137.3475 -155.2140 -92.4054
ENERGY: 1200000 0.2685 4.0689 0.8195 0.0000 -10679.3262 1505.4610 0.0000 0.0000 1762.3287 -7406.3795 305.0719 -9168.7082 -7348.0632 299.6898 437.5437 466.2481 29867.4549 -61.5691 -5.8372
ENERGY: 1500000 0.9010 3.3822 1.1756 0.0000 -10531.1899 1486.9320 0.0000 0.0000 1743.9254 -7294.8737 301.8862 -9038.7992 -7343.2667 300.1715 885.6669 962.2215 29580.9751 5.4889 63.7058
TCL: Running FEP window   8: Lambda1 0.35   Lambda2 0.39999999999999997 [dLambda 0.04999999999999999]
TCL: Setting parameter firsttimestep to 0
TCL: Setting parameter alchLambda to 0.35
Info: NONBONDED TABLE R-SQUARED SPACING: 0.0625
Info: NONBONDED TABLE SIZE: 705 POINTS
TCL: Setting parameter alchLambda2 to 0.39999999999999997
Info: NONBONDED TABLE R-SQUARED SPACING: 0.0625
Info: NONBONDED TABLE SIZE: 705 POINTS
TCL: Running for 1500000 steps
ETITLE: TS BOND ANGLE DIHED IMPRP ELECT VDW BOUNDARY MISC KINETIC TOTAL TEMP POTENTIAL TOTALAVG TEMPAVG PRESSURE GPRESSURE VOLUME PRESSAVG GPRESSAVG
ENERGY: 0 0.9010 3.3822 1.1756 0.0000 -10531.1902 1486.7511 0.0000 0.0000 1743.0722 -7295.9080 301.7385 -9038.9802 -7295.9080 301.7385 896.1169 964.8659 29580.9751 896.1169 964.8659
ENERGY: 300000 0.5524 4.3998 0.8130 0.0000 -10461.6046 1443.7515 0.0000 0.0000 1780.1536 -7231.9345 308.1576 -9012.0881 -7317.3880 302.0259 220.9197 309.0537 30436.0384 23.3883 101.7511
ENERGY: 600000 0.7964 7.7534 0.3676 0.0000 -10642.6586 1464.8788 0.0000 0.0000 1740.8428 -7428.0195 301.3526 -9168.8623 -7353.2631 301.4184 184.7988 257.0934 29545.5953 59.5909 125.4528
ENERGY: 900000 0.5715 4.9851 0.9998 0.0000 -10636.6061 1528.6565 0.0000 0.0000 1737.0668 -7364.3264 300.6989 -9101.3932 -7356.9299 300.3932 928.9191 921.9412 29747.2988 38.4051 97.7729
ENERGY: 1200000 0.9406 5.6683 1.0191 0.0000 -10457.3690 1339.7898 0.0000 0.0000 1717.3885 -7392.5627 297.2925 -9109.9513 -7375.5247 299.4178 -857.5020 -800.1727 30237.4840 -44.8820 16.6138
ENERGY: 1500000 0.1156 3.7044 0.9483 0.0000 -10411.0701 1371.2871 0.0000 0.0000 1751.3515 -7283.6632 303.1717 -9035.0147 -7359.8200 300.3322 -71.1250 1.6027 29751.8774 -58.3139 5.9714
TCL: Running FEP window   9: Lambda1 0.39999999999999997 Lambda2 0.44999999999999996 [dLambda 0.04999999999999999]
TCL: Setting parameter firsttimestep to 0
TCL: Setting parameter alchLambda to 0.39999999999999997
Info: NONBONDED TABLE R-SQUARED SPACING: 0.0625
Info: NONBONDED TABLE SIZE: 705 POINTS
TCL: Setting parameter alchLambda2 to 0.44999999999999996
Info: NONBONDED TABLE R-SQUARED SPACING: 0.0625
Info: NONBONDED TABLE SIZE: 705 POINTS
TCL: Running for 1500000 steps
ETITLE: TS BOND ANGLE DIHED IMPRP ELECT VDW BOUNDARY MISC KINETIC TOTAL TEMP POTENTIAL TOTALAVG TEMPAVG PRESSURE GPRESSURE VOLUME PRESSAVG GPRESSAVG
ENERGY: 0 0.1156 3.7044 0.9483 0.0000 -10411.0703 1371.3449 0.0000 0.0000 1750.4691 -7284.4880 303.0190 -9034.9571 -7284.4880 303.0190 -86.7809 3.4566 29751.8774 -86.7809 3.4566
ENERGY: 300000 1.0845 5.1399 1.5614 0.0000 -10388.3229 1325.7505 0.0000 0.0000 1714.9811 -7339.8055 296.8757 -9054.7866 -7325.9048 302.3208 -586.5842 -582.7101 30043.6472 -260.2115 -185.5750
ENERGY: 600000 3.5448 6.6394 2.0197 0.0000 -10613.3158 1504.6238 0.0000 0.0000 1737.3773 -7359.1109 300.7527 -9096.4882 -7352.4045 299.9290 601.7188 660.6594 29881.5568 -52.7133 11.1636
ENERGY: 900000 1.2021 4.3593 1.6349 0.0000 -10462.5584 1365.9605 0.0000 0.0000 1689.9112 -7399.4904 292.5359 -9089.4015 -7358.6608 298.1405 -521.0748 -354.0198 29964.7429 -115.4992 -48.7104
ENERGY: 1200000 1.1297 2.3811 0.3743 0.0000 -10456.8969 1344.6829 0.0000 0.0000 1708.2434 -7400.0856 295.7094 -9108.3290 -7352.5125 298.6773 -754.7391 -680.1006 29838.4453 -140.5779 -74.6303
ENERGY: 1500000 2.1680 7.4476 1.9693 0.0000 -10543.4483 1419.4741 0.0000 0.0000 1751.2474 -7361.1418 303.1537 -9112.3892 -7354.2483 298.8770 -227.8491 -123.4185 30089.5911 -67.7492 -0.8551
TCL: Running FEP window  10: Lambda1 0.44999999999999996 Lambda2 0.49999999999999994 [dLambda 0.04999999999999999]
TCL: Setting parameter firsttimestep to 0
TCL: Setting parameter alchLambda to 0.44999999999999996
Info: NONBONDED TABLE R-SQUARED SPACING: 0.0625
Info: NONBONDED TABLE SIZE: 705 POINTS
TCL: Setting parameter alchLambda2 to 0.49999999999999994
Info: NONBONDED TABLE R-SQUARED SPACING: 0.0625
Info: NONBONDED TABLE SIZE: 705 POINTS
TCL: Running for 1500000 steps
ETITLE: TS BOND ANGLE DIHED IMPRP ELECT VDW BOUNDARY MISC KINETIC TOTAL TEMP POTENTIAL TOTALAVG TEMPAVG PRESSURE GPRESSURE VOLUME PRESSAVG GPRESSAVG
ENERGY: 0 2.1680 7.4476 1.9693 0.0000 -10543.4482 1419.3918 0.0000 0.0000 1750.3685 -7362.1029 303.0015 -9112.4713 -7362.1029 303.0015 -201.2737 -117.0647 30089.5911 -201.2737 -117.0647
ENERGY: 300000 1.7314 6.0550 0.6713 0.0000 -10648.4700 1449.2966 0.0000 0.0000 1716.3935 -7474.3221 297.1202 -9190.7156 -7390.5698 299.6687 30.2449 113.9552 29481.9480 220.8436 309.7677
ENERGY: 600000 0.9313 4.6579 1.4127 0.0000 -10682.0027 1486.8699 0.0000 0.0000 1761.2294 -7426.9014 304.8816 -9188.1308 -7393.9428 299.0200 625.9066 640.6791 29298.5449 245.9343 322.7538
ENERGY: 900000 2.1192 2.9009 0.7002 0.0000 -10619.9821 1447.8632 0.0000 0.0000 1758.2501 -7408.1486 304.3659 -9166.3986 -7399.6168 299.1356 -152.8037 -43.9482 29768.8073 107.0326 183.8215
ENERGY: 1200000 2.8831 6.7998 0.2682 0.0000 -10446.2660 1360.5733 0.0000 0.0000 1732.4130 -7343.3285 299.8933 -9075.7416 -7389.9550 299.3801 -511.9213 -344.3626 29885.3980 16.1350 99.0335
ENERGY: 1500000 0.9558 8.1678 0.7142 0.0000 -10403.9743 1360.3030 0.0000 0.0000 1727.7997 -7306.0338 299.0947 -9033.8335 -7370.9484 300.4141 -207.4511 -189.9106 29889.7762 54.0511 133.5378
TCL: Running FEP window  11: Lambda1 0.49999999999999994 Lambda2 0.5499999999999999 [dLambda 0.04999999999999999]
TCL: Setting parameter firsttimestep to 0
TCL: Setting parameter alchLambda to 0.49999999999999994
Info: NONBONDED TABLE R-SQUARED SPACING: 0.0625
Info: NONBONDED TABLE SIZE: 705 POINTS
TCL: Setting parameter alchLambda2 to 0.5499999999999999
Info: NONBONDED TABLE R-SQUARED SPACING: 0.0625
Info: NONBONDED TABLE SIZE: 705 POINTS
TCL: Running for 1500000 steps
ETITLE: TS BOND ANGLE DIHED IMPRP ELECT VDW BOUNDARY MISC KINETIC TOTAL TEMP POTENTIAL TOTALAVG TEMPAVG PRESSURE GPRESSURE VOLUME PRESSAVG GPRESSAVG
ENERGY: 0 0.9558 8.1678 0.7142 0.0000 -10403.9746 1360.5407 0.0000 0.0000 1726.8779 -7306.7182 298.9352 -9033.5962 -7306.7182 298.9352 -264.9909 -184.3877 29889.7762 -264.9909 -184.3877
ENERGY: 300000 2.1999 7.3058 0.2949 0.0000 -10400.5602 1350.3150 0.0000 0.0000 1738.0488 -7302.3958 300.8689 -9040.4446 -7349.0539 297.5163 -290.1454 -179.1633 29825.7673 -442.9549 -369.8708
ENERGY: 600000 0.5569 3.3771 0.7739 0.0000 -10424.5637 1394.5576 0.0000 0.0000 1760.7261 -7264.5722 304.7945 -9025.2983 -7349.7486 298.6537 339.9738 358.9568 29380.6761 -160.3606 -92.9581
ENERGY: 900000 1.7647 5.5293 1.4344 0.0000 -10677.9320 1524.2019 0.0000 0.0000 1714.8451 -7430.1566 296.8522 -9145.0017 -7367.9792 299.0204 636.4570 733.2162 29630.5626 -95.1119 -33.6161
ENERGY: 1200000 1.9003 2.7299 0.9165 0.0000 -10569.9695 1467.7063 0.0000 0.0000 1726.1411 -7370.5753 298.8076 -9096.7164 -7377.6290 298.8445 315.2712 410.7085 29880.8783 -126.4375 -60.9543
ENERGY: 1500000 3.3237 3.4182 0.5990 0.0000 -10479.3222 1439.3727 0.0000 0.0000 1690.4819 -7342.1266 292.6347 -9032.6085 -7371.3034 299.0277 293.0854 346.1626 29961.4342 -123.3280 -51.3749
TCL: Running FEP window  12: Lambda1 0.5499999999999999 Lambda2 0.6    [dLambda 0.050000000000000044]
TCL: Setting parameter firsttimestep to 0
TCL: Setting parameter alchLambda to 0.5499999999999999
Info: NONBONDED TABLE R-SQUARED SPACING: 0.0625
Info: NONBONDED TABLE SIZE: 705 POINTS
TCL: Setting parameter alchLambda2 to 0.6
Info: NONBONDED TABLE R-SQUARED SPACING: 0.0625
Info: NONBONDED TABLE SIZE: 705 POINTS
TCL: Running for 1500000 steps
ETITLE: TS BOND ANGLE DIHED IMPRP ELECT VDW BOUNDARY MISC KINETIC TOTAL TEMP POTENTIAL TOTALAVG TEMPAVG PRESSURE GPRESSURE VOLUME PRESSAVG GPRESSAVG
ENERGY: 0 3.3237 3.4181 0.5990 0.0000 -10478.8023 1440.2471 0.0000 0.0000 1689.5941 -7341.6201 292.4811 -9031.2143 -7341.6201 292.4811 277.8677 359.9140 29961.4342 277.8677 359.9140
ENERGY: 300000 0.3412 5.7288 0.7337 0.0000 -10442.7871 1342.0204 0.0000 0.0000 1722.5813 -7371.3817 298.1914 -9093.9630 -7378.5493 298.2721 -758.8254 -727.0048 30231.5567 -156.9138 -111.2570
ENERGY: 600000 0.6003 5.1582 0.6670 0.0000 -10556.9809 1471.7195 0.0000 0.0000 1702.0095 -7376.8264 294.6303 -9078.8359 -7383.6225 299.0274 260.9255 335.4893 29976.3660 -72.1500 -15.6861
ENERGY: 900000 0.3006 4.8748 1.4158 0.0000 -10480.4105 1396.7136 0.0000 0.0000 1705.4814 -7371.6243 295.2313 -9077.1057 -7372.8687 298.4327 5.7254 26.6679 29823.4623 -153.1265 -98.8219
ENERGY: 1200000 0.8655 5.9814 1.1179 0.0000 -10400.5564 1384.0064 0.0000 0.0000 1699.0633 -7309.5219 294.1202 -9008.5852 -7364.4990 299.2476 -290.3390 -203.8688 30428.8683 -180.0332 -125.6020
ENERGY: 1500000 0.6477 5.8388 0.9121 0.0000 -10513.5659 1432.9550 0.0000 0.0000 1722.4088 -7350.8036 298.1615 -9073.2124 -7367.5058 299.3186 77.8150 150.6433 30030.1267 -88.3161 -38.0482
TCL: Running FEP window  13: Lambda1 0.6    Lambda2 0.65   [dLambda 0.050000000000000044]
TCL: Setting parameter firsttimestep to 0
TCL: Setting parameter alchLambda to 0.6
Info: NONBONDED TABLE R-SQUARED SPACING: 0.0625
Info: NONBONDED TABLE SIZE: 705 POINTS
TCL: Setting parameter alchLambda2 to 0.65
Info: NONBONDED TABLE R-SQUARED SPACING: 0.0625
Info: NONBONDED TABLE SIZE: 705 POINTS
TCL: Running for 1500000 steps
ETITLE: TS BOND ANGLE DIHED IMPRP ELECT VDW BOUNDARY MISC KINETIC TOTAL TEMP POTENTIAL TOTALAVG TEMPAVG PRESSURE GPRESSURE VOLUME PRESSAVG GPRESSAVG
ENERGY: 0 0.6477 5.8388 0.9121 0.0000 -10513.8484 1432.9961 0.0000 0.0000 1721.5770 -7351.8767 298.0175 -9073.4537 -7351.8767 298.0175 81.2886 154.9603 30030.1267 81.2886 154.9603
ENERGY: 300000 1.4306 6.3320 0.8909 0.0000 -10575.6219 1431.4961 0.0000 0.0000 1722.1429 -7413.3295 298.1155 -9135.4724 -7400.2517 296.8203 32.8975 69.8667 29787.3151 60.7203 103.5087
ENERGY: 600000 1.2300 5.9946 0.6482 0.0000 -10491.5155 1387.4684 0.0000 0.0000 1716.9479 -7379.2265 297.2162 -9096.1744 -7395.3889 296.8866 -228.9717 -168.3148 29731.0282 27.3850 67.4206
ENERGY: 900000 0.2833 7.8830 1.7406 0.0000 -10738.1177 1618.0496 0.0000 0.0000 1750.1929 -7359.9684 302.9712 -9110.1613 -7381.9963 298.2125 1806.0565 1858.6509 29277.3680 216.6545 257.6817
ENERGY: 1200000 0.8119 5.2811 0.3022 0.0000 -10650.8609 1516.8315 0.0000 0.0000 1717.8611 -7409.7731 297.3743 -9127.6342 -7374.2289 297.8916 410.5359 503.2007 30302.1753 264.5412 315.8837
ENERGY: 1500000 0.8792 4.6734 1.4656 0.0000 -10422.5967 1344.0429 0.0000 0.0000 1694.3058 -7377.2299 293.2967 -9071.5356 -7367.2778 298.2995 -633.7474 -579.8283 29986.6195 102.5113 155.7209
TCL: Running FEP window  14: Lambda1 0.65   Lambda2 0.7000000000000001 [dLambda 0.050000000000000044]
TCL: Setting parameter firsttimestep to 0
TCL: Setting parameter alchLambda to 0.65
Info: NONBONDED TABLE R-SQUARED SPACING: 0.0625
Info: NONBONDED TABLE SIZE: 705 POINTS
TCL: Setting parameter alchLambda2 to 0.7000000000000001
Info: NONBONDED TABLE R-SQUARED SPACING: 0.0625
Info: NONBONDED TABLE SIZE: 705 POINTS
TCL: Running for 1500000 steps
ETITLE: TS BOND ANGLE DIHED IMPRP ELECT VDW BOUNDARY MISC KINETIC TOTAL TEMP POTENTIAL TOTALAVG TEMPAVG PRESSURE GPRESSURE VOLUME PRESSAVG GPRESSAVG
ENERGY: 0 0.8792 4.6734 1.4656 0.0000 -10423.0556 1344.4684 0.0000 0.0000 1693.4243 -7378.1448 293.1441 -9071.5690 -7378.1448 293.1441 -649.8003 -570.9736 29986.6195 -649.8003 -570.9736
ENERGY: 300000 0.3676 6.3414 0.5636 0.0000 -10432.8798 1313.9198 0.0000 0.0000 1668.2833 -7443.4042 288.7920 -9111.6875 -7380.2216 295.1684 -969.3611 -920.4159 30171.7679 -482.0773 -415.7119
ENERGY: 600000 1.9480 5.9302 0.5109 0.0000 -10492.8273 1395.3807 0.0000 0.0000 1714.8627 -7374.1948 296.8552 -9089.0575 -7382.5389 296.8927 -492.4562 -383.9886 30321.8447 -322.9796 -268.9780
ENERGY: 900000 2.1988 4.3346 1.2634 0.0000 -10554.8666 1480.7342 0.0000 0.0000 1722.5792 -7343.7564 298.1910 -9066.3356 -7371.5357 297.4915 577.6945 714.3172 29390.3437 -270.0068 -202.6078
ENERGY: 1200000 1.5835 5.8721 0.7631 0.0000 -10709.8477 1557.9189 0.0000 0.0000 1744.5929 -7399.1172 302.0017 -9143.7101 -7373.1522 297.6771 765.1351 856.7845 29969.5099 -110.0559 -39.8086
ENERGY: 1500000 1.3800 3.6896 0.3846 0.0000 -10555.8068 1397.2896 0.0000 0.0000 1789.7300 -7363.3330 309.8153 -9153.0630 -7376.9000 298.5686 -198.5070 -127.8294 29680.5169 -169.7473 -103.0208
TCL: Running FEP window  15: Lambda1 0.7000000000000001 Lambda2 0.7500000000000001 [dLambda 0.050000000000000044]
TCL: Setting parameter firsttimestep to 0
TCL: Setting parameter alchLambda to 0.7000000000000001
Info: NONBONDED TABLE R-SQUARED SPACING: 0.0625
Info: NONBONDED TABLE SIZE: 705 POINTS
TCL: Setting parameter alchLambda2 to 0.7500000000000001
Info: NONBONDED TABLE R-SQUARED SPACING: 0.0625
Info: NONBONDED TABLE SIZE: 705 POINTS
TCL: Running for 1500000 steps
ETITLE: TS BOND ANGLE DIHED IMPRP ELECT VDW BOUNDARY MISC KINETIC TOTAL TEMP POTENTIAL TOTALAVG TEMPAVG PRESSURE GPRESSURE VOLUME PRESSAVG GPRESSAVG
ENERGY: 0 1.3800 3.6896 0.3846 0.0000 -10555.6860 1396.8393 0.0000 0.0000 1788.8986 -7364.4939 309.6714 -9153.3925 -7364.4939 309.6714 -222.0643 -125.7414 29680.5169 -222.0643 -125.7414
ENERGY: 300000 0.7296 8.1219 1.3609 0.0000 -10398.1963 1334.9843 0.0000 0.0000 1711.3142 -7341.6854 296.2410 -9052.9996 -7330.6456 302.1256 -338.1318 -374.9510 29797.3960 -118.5238 -59.9673
ENERGY: 600000 0.8925 5.8843 0.4755 0.0000 -10418.1096 1309.7403 0.0000 0.0000 1658.8310 -7442.2861 287.1557 -9101.1171 -7350.4032 299.4856 -1329.0288 -1278.6413 30597.9781 -416.0795 -369.3209
ENERGY: 900000 0.3086 8.6116 2.4562 0.0000 -10617.5074 1511.6500 0.0000 0.0000 1743.9135 -7350.5675 301.8841 -9094.4810 -7355.9461 299.2845 533.1743 579.6727 29942.9402 -246.1273 -194.2075
ENERGY: 1200000 0.4911 3.5335 2.2465 0.0000 -10558.7781 1364.9725 0.0000 0.0000 1740.1090 -7447.4255 301.2256 -9187.5345 -7361.3894 299.7053 -608.2334 -546.2651 29714.6495 -186.0344 -133.8861
ENERGY: 1500000 1.1130 9.3595 2.9677 0.0000 -10529.5069 1391.3366 0.0000 0.0000 1724.3199 -7400.4102 298.4923 -9124.7301 -7351.1165 300.5994 -473.5373 -456.3693 30266.3097 -174.2978 -121.4126
TCL: Running FEP window  16: Lambda1 0.7500000000000001 Lambda2 0.8000000000000002 [dLambda 0.050000000000000044]
TCL: Setting parameter firsttimestep to 0
TCL: Setting parameter alchLambda to 0.7500000000000001
Info: NONBONDED TABLE R-SQUARED SPACING: 0.0625
Info: NONBONDED TABLE SIZE: 705 POINTS
TCL: Setting parameter alchLambda2 to 0.8000000000000002
Info: NONBONDED TABLE R-SQUARED SPACING: 0.0625
Info: NONBONDED TABLE SIZE: 705 POINTS
TCL: Running for 1500000 steps
ETITLE: TS BOND ANGLE DIHED IMPRP ELECT VDW BOUNDARY MISC KINETIC TOTAL TEMP POTENTIAL TOTALAVG TEMPAVG PRESSURE GPRESSURE VOLUME PRESSAVG GPRESSAVG
ENERGY: 0 1.1130 9.3595 2.9677 0.0000 -10529.4351 1391.1643 0.0000 0.0000 1723.4715 -7401.3591 298.3455 -9124.8306 -7401.3591 298.3455 -521.9099 -448.4439 30266.3097 -521.9099 -448.4439
ENERGY: 300000 0.7953 7.8615 2.6764 0.0000 -10557.8249 1491.0654 0.0000 0.0000 1749.2764 -7306.1498 302.8125 -9055.4263 -7382.5146 299.8481 484.6775 545.4553 30092.4240 263.6553 326.8245
ENERGY: 600000 3.6946 3.2320 0.1567 0.0000 -10534.0111 1422.2185 0.0000 0.0000 1688.9563 -7415.7530 292.3706 -9104.7093 -7364.9139 299.8545 2.5309 47.9840 29758.5366 137.7528 196.8200
ENERGY: 900000 0.3763 2.2164 0.4568 0.0000 -10573.7330 1400.2362 0.0000 0.0000 1734.1608 -7436.2866 300.1959 -9170.4474 -7371.7634 299.8583 -479.1100 -314.3901 30069.4135 84.8243 160.2319
ENERGY: 1200000 0.1554 9.8291 1.2325 0.0000 -10532.8343 1437.5202 0.0000 0.0000 1704.2982 -7379.7989 295.0264 -9084.0971 -7366.8354 300.1729 -80.5067 -32.9124 30369.2555 78.0267 150.8823
ENERGY: 1500000 1.0945 4.2065 0.3965 0.0000 -10440.1544 1335.7372 0.0000 0.0000 1716.3926 -7382.3271 297.1201 -9098.7197 -7369.7812 299.3789 -684.0851 -666.5918 30236.9593 -79.7046 -11.5437
TCL: Running FEP window  17: Lambda1 0.8000000000000002 Lambda2 0.8500000000000002 [dLambda 0.050000000000000044]
TCL: Setting parameter firsttimestep to 0
TCL: Setting parameter alchLambda to 0.8000000000000002
Info: NONBONDED TABLE R-SQUARED SPACING: 0.0625
Info: NONBONDED TABLE SIZE: 705 POINTS
TCL: Setting parameter alchLambda2 to 0.8500000000000002
Info: NONBONDED TABLE R-SQUARED SPACING: 0.0625
Info: NONBONDED TABLE SIZE: 705 POINTS
TCL: Running for 1500000 steps
ETITLE: TS BOND ANGLE DIHED IMPRP ELECT VDW BOUNDARY MISC KINETIC TOTAL TEMP POTENTIAL TOTALAVG TEMPAVG PRESSURE GPRESSURE VOLUME PRESSAVG GPRESSAVG
ENERGY: 0 1.0945 4.2065 0.3965 0.0000 -10441.7630 1335.9462 0.0000 0.0000 1715.5482 -7384.5710 296.9739 -9100.1193 -7384.5710 296.9739 -750.5387 -658.3035 30236.9593 -750.5387 -658.3035
ENERGY: 300000 1.2216 12.7560 1.0526 0.0000 -10626.8343 1408.4893 0.0000 0.0000 1705.6516 -7497.6633 295.2607 -9203.3148 -7421.5340 296.4969 -408.6343 -389.3776 29785.5686 -273.0454 -214.6390
ENERGY: 600000 0.2207 5.2826 0.5867 0.0000 -10624.3305 1466.3775 0.0000 0.0000 1727.2097 -7424.6533 298.9926 -9151.8630 -7402.6042 299.2224 274.9281 298.2655 29694.4127 -67.0922 -9.6610
ENERGY: 900000 0.2422 8.4047 1.4977 0.0000 -10571.5013 1419.9657 0.0000 0.0000 1737.8123 -7403.5787 300.8280 -9141.3910 -7394.8007 299.8439 -327.9613 -254.5348 30261.6131 -45.7166 9.7905
ENERGY: 1200000 0.4903 3.7650 0.5931 0.0000 -10525.7041 1391.6092 0.0000 0.0000 1726.2531 -7402.9934 298.8270 -9129.2466 -7383.2325 300.0655 -247.5749 -135.0453 29857.8298 -66.2405 8.2719
ENERGY: 1500000 1.9425 5.1895 0.6964 0.0000 -10472.0713 1376.2108 0.0000 0.0000 1727.4241 -7360.6080 299.0297 -9088.0321 -7371.7384 300.3396 -306.1995 -190.0285 29665.1110 -119.7052 -43.8772
TCL: Running FEP window  18: Lambda1 0.8500000000000002 Lambda2 0.9000000000000002 [dLambda 0.050000000000000044]
TCL: Setting parameter firsttimestep to 0
TCL: Setting parameter alchLambda to 0.8500000000000002
Info: NONBONDED TABLE R-SQUARED SPACING: 0.0625
Info: NONBONDED TABLE SIZE: 705 POINTS
TCL: Setting parameter alchLambda2 to 0.9000000000000002
Info: NONBONDED TABLE R-SQUARED SPACING: 0.0625
Info: NONBONDED TABLE SIZE: 705 POINTS
TCL: Running for 1500000 steps
ETITLE: TS BOND ANGLE DIHED IMPRP ELECT VDW BOUNDARY MISC KINETIC TOTAL TEMP POTENTIAL TOTALAVG TEMPAVG PRESSURE GPRESSURE VOLUME PRESSAVG GPRESSAVG
ENERGY: 0 1.9425 5.1895 0.6964 0.0000 -10473.7697 1377.4856 0.0000 0.0000 1726.5738 -7361.8818 298.8825 -9088.4557 -7361.8818 298.8825 -280.0595 -170.7588 29665.1110 -280.0595 -170.7588
ENERGY: 300000 0.9104 9.0085 1.1703 0.0000 -10520.8124 1423.6395 0.0000 0.0000 1784.9603 -7301.1234 308.9896 -9086.0837 -7348.0475 301.1703 57.9925 171.1011 29947.2998 -393.2174 -311.8464
ENERGY: 600000 0.4213 3.7792 0.3608 0.0000 -10431.2156 1423.1326 0.0000 0.0000 1745.5569 -7257.9648 302.1686 -9003.5217 -7346.5231 301.0711 230.9880 285.7035 30237.3940 -79.1851 -4.7288
ENERGY: 900000 0.8122 4.7953 0.3708 0.0000 -10438.8669 1362.2375 0.0000 0.0000 1710.8002 -7359.8509 296.1520 -9070.6510 -7349.6340 300.1501 -370.8675 -307.0382 29992.5887 -77.0204 0.4461
ENERGY: 1200000 2.2592 6.5184 0.3523 0.0000 -10560.0916 1430.1101 0.0000 0.0000 1753.7671 -7367.0845 303.5899 -9120.8516 -7348.5136 299.9978 17.1029 45.5494 30023.4790 -113.5221 -34.6885
ENERGY: 1500000 0.8945 8.6247 1.1718 0.0000 -10630.2946 1426.9452 0.0000 0.0000 1749.0508 -7443.6077 302.7734 -9192.6585 -7354.0794 299.9907 -159.1600 -54.7545 29818.7975 -120.3589 -41.3703
TCL: Running FEP window  19: Lambda1 0.9000000000000002 Lambda2 0.9500000000000003 [dLambda 0.050000000000000044]
TCL: Setting parameter firsttimestep to 0
TCL: Setting parameter alchLambda to 0.9000000000000002
Info: NONBONDED TABLE R-SQUARED SPACING: 0.0625
Info: NONBONDED TABLE SIZE: 705 POINTS
TCL: Setting parameter alchLambda2 to 0.9500000000000003
Info: NONBONDED TABLE R-SQUARED SPACING: 0.0625
Info: NONBONDED TABLE SIZE: 705 POINTS
TCL: Running for 1500000 steps
ETITLE: TS BOND ANGLE DIHED IMPRP ELECT VDW BOUNDARY MISC KINETIC TOTAL TEMP POTENTIAL TOTALAVG TEMPAVG PRESSURE GPRESSURE VOLUME PRESSAVG GPRESSAVG
ENERGY: 0 0.8945 8.6247 1.1718 0.0000 -10631.5949 1427.2807 0.0000 0.0000 1748.2229 -7445.4004 302.6301 -9193.6232 -7445.4004 302.6301 -135.4753 -47.4822 29818.7975 -135.4753 -47.4822
ENERGY: 300000 0.9551 4.3499 0.9420 0.0000 -10736.1394 1542.1695 0.0000 0.0000 1747.7363 -7439.9866 302.5459 -9187.7229 -7426.6985 300.4966 636.0833 681.5579 29725.3439 -108.0846 -31.0043
ENERGY: 600000 0.3967 4.7099 1.4909 0.0000 -10518.7155 1365.8010 0.0000 0.0000 1757.1478 -7389.1692 304.1751 -9146.3170 -7383.4606 301.9304 -494.8665 -402.2957 29940.6834 -189.4320 -111.3015
ENERGY: 900000 0.4208 3.0724 1.1846 0.0000 -10569.3641 1444.7050 0.0000 0.0000 1796.9131 -7323.0681 311.0588 -9119.9813 -7368.6362 302.0004 374.8307 420.8818 29735.8564 -163.9836 -92.7647
ENERGY: 1200000 0.4030 3.6042 0.9987 0.0000 -10514.2900 1399.8815 0.0000 0.0000 1746.2175 -7363.1850 302.2830 -9109.4025 -7362.6746 301.3982 -82.7850 -61.3722 29752.3250 -105.8714 -43.0876
ENERGY: 1500000 1.1565 5.2939 0.4676 0.0000 -10569.3253 1461.6244 0.0000 0.0000 1755.7274 -7345.0555 303.9292 -9100.7829 -7367.6374 301.4505 383.8854 461.8346 29710.1595 -76.8351 -11.1033
TCL: Running FEP window  20: Lambda1 0.9500000000000003 Lambda2 1.0    [dLambda 0.04999999999999971]
TCL: Setting parameter firsttimestep to 0
TCL: Setting parameter alchLambda to 0.9500000000000003
Info: NONBONDED TABLE R-SQUARED SPACING: 0.0625
Info: NONBONDED TABLE SIZE: 705 POINTS
TCL: Setting parameter alchLambda2 to 1.0
Info: NONBONDED TABLE R-SQUARED SPACING: 0.0625
Info: NONBONDED TABLE SIZE: 705 POINTS
TCL: Running for 1500000 steps
ETITLE: TS BOND ANGLE DIHED IMPRP ELECT VDW BOUNDARY MISC KINETIC TOTAL TEMP POTENTIAL TOTALAVG TEMPAVG PRESSURE GPRESSURE VOLUME PRESSAVG GPRESSAVG
ENERGY: 0 1.1565 5.2939 0.4676 0.0000 -10570.3512 1462.2955 0.0000 0.0000 1754.8708 -7346.2669 303.7809 -9101.1376 -7346.2669 303.7809 384.4848 475.7823 29710.1595 384.4848 475.7823
ENERGY: 300000 3.4383 4.9563 0.2416 0.0000 -10622.5192 1496.3003 0.0000 0.0000 1765.1075 -7352.4752 305.5530 -9117.5827 -7363.4619 300.5633 766.8848 859.8126 29397.4876 420.9324 513.8405
ENERGY: 600000 1.3335 6.7146 0.9433 0.0000 -10538.9526 1413.6264 0.0000 0.0000 1729.5210 -7386.8138 299.3927 -9116.3348 -7382.8168 300.3161 -211.2686 -143.7813 30065.3409 313.0561 399.5188
ENERGY: 900000 0.5488 9.1258 0.8592 0.0000 -10555.3763 1449.4738 0.0000 0.0000 1758.9597 -7336.4091 304.4888 -9095.3688 -7376.6919 301.1374 257.9118 293.1692 29846.3959 132.9817 210.4981
ENERGY: 1200000 3.4839 6.6694 1.1744 0.0000 -10476.5326 1351.5269 0.0000 0.0000 1789.6510 -7324.0270 309.8016 -9113.6780 -7366.8841 302.9210 -619.5261 -622.5536 29859.2241 -22.1109 46.4648
ENERGY: 1500000 0.8371 3.7389 1.1381 0.0000 -10571.8806 1437.4135 0.0000 0.0000 1686.9997 -7441.7533 292.0319 -9128.7530 -7370.3768 302.1871 89.9541 222.4097 29611.2715 3.7453 71.0685
TCL: Exiting due to exit command.
