Info: SIMULATION PARAMETERS:
Info: TIMESTEP               2
Info: NUMBER OF STEPS        0
Info: STEPS PER CYCLE        10
Info: PERIODIC CELL BASIS 1  31.4466 0 0
Info: PERIODIC CELL BASIS 2  0 29.7658 0
Info: PERIODIC CELL BASIS 3  0 0 33.0075
Info: PERIODIC CELL CENTER   0 0 0
Info: WRAPPING WATERS AROUND PERIODIC BOUNDARIES ON OUTPUT.
Info: WRAPPING ALL CLUSTERS AROUND PERIODIC BOUNDARIES ON OUTPUT.
Info: FIRST LDB TIMESTEP     50
Info: LAST LDB TIMESTEP     -1
Info: HOM BACKGROUND SCALING 1
Info: PME BACKGROUND SCALING 1
Info: MIN ATOMS PER PATCH    40
Info: EMPTY PATCH LOAD       40 ATOMS
Info: VELOCITY FILE          mobley_1178614_equil.vel
Info: CENTER OF MASS MOVING INITIALLY? NO
Info: DIELECTRIC             1
Info: EXCLUDE                SCALED ONE-FOUR
Info: 1-4 ELECTROSTATICS SCALED BY 0.833333
Info: MODIFIED 1-4 VDW PARAMETERS WILL BE USED
Info: DCD FILENAME           mobley_1178614_prod.dcd
Info: DCD FREQUENCY          100000
Info: DCD FIRST STEP         100000
Info: DCD FILE WILL CONTAIN UNIT CELL DATA
Info: XST FILENAME           mobley_1178614_prod.xst
Info: XST FREQUENCY          100000
Info: NO VELOCITY DCD OUTPUT
Info: NO FORCE DCD OUTPUT
Info: OUTPUT FILENAME        mobley_1178614_prod
Info: BINARY OUTPUT FILES WILL BE USED
Info: RESTART FILENAME       mobley_1178614_prod.restart
Info: RESTART FREQUENCY      100000
Info: BINARY RESTART FILES WILL BE USED
Info: CUTOFF                 9
Info: PAIRLIST DISTANCE      11
Info: PAIRLIST SHRINK RATE   0.01
Info: PAIRLIST GROW RATE     0.01
Info: PAIRLIST TRIGGER       0.3
Info: PAIRLISTS PER CYCLE    2
Info: PAIRLISTS ENABLED
Info: MARGIN                 2
Info: HYDROGEN GROUP CUTOFF  2.5
Info: PATCH DIMENSION        15.5
Info: ENERGY OUTPUT STEPS    100000
Info: ENERGY EVALUATION STEPS    100000
Info: OUTPUT ENERGY PRECISION 4
Info: CROSSTERM ENERGY INCLUDED IN DIHEDRAL
Info: TIMING OUTPUT STEPS    1000000
Info: PRESSURE OUTPUT STEPS  100000
Info: ALCHEMICAL FEP ON
Info: FEP CURRENT LAMBDA VALUE     1
Info: FEP COMPARISON LAMBDA VALUE  0.95
Info: FEP INTRA-ALCHEMICAL NON-BONDED INTERACTIONS WILL BE RETAINED
Info: FEP INTRA-ALCHEMICAL BONDED INTERACTIONS WILL BE RETAINED
Info: FEP VDW SHIFTING COEFFICIENT 5
Info: FEP ELEC. ACTIVE FOR ANNIHILATED PARTICLES BETWEEN LAMBDA = 0 AND LAMBDA = 0.5
Info: FEP ELEC. ACTIVE FOR EXNIHILATED PARTICLES BETWEEN LAMBDA = 0.5 AND LAMBDA = 1
Info: FEP VDW ACTIVE FOR ANNIHILATED PARTICLES BETWEEN LAMBDA = 0 AND LAMBDA = 1
Info: FEP VDW ACTIVE FOR EXNIHILATED PARTICLES BETWEEN LAMBDA = 0 AND LAMBDA = 1
Info: FEP BOND ACTIVE FOR ANNIHILATED PARTICLES BETWEEN LAMBDA = 1 AND LAMBDA = 1
Info: FEP BOND ACTIVE FOR EXNIHILATED PARTICLES BETWEEN LAMBDA = 0 AND LAMBDA = 0
Info: LANGEVIN DYNAMICS ACTIVE
Info: LANGEVIN TEMPERATURE   300
Info: LANGEVIN USING BBK INTEGRATOR
Info: LANGEVIN DAMPING COEFFICIENT IS 1 INVERSE PS
Info: LANGEVIN DYNAMICS APPLIED TO HYDROGENS
Info: LANGEVIN PISTON PRESSURE CONTROL ACTIVE
Info:        TARGET PRESSURE IS 1.01325 BAR
Info:     OSCILLATION PERIOD IS 50 FS
Info:             DECAY TIME IS 25 FS
Info:     PISTON TEMPERATURE IS 300 K
Info:       PRESSURE CONTROL IS GROUP-BASED
Info:    INITIAL STRAIN RATE IS 0.000341762 0.000341762 0.000341762
Info:       CELL FLUCTUATION IS ISOTROPIC
Info: PARTICLE MESH EWALD (PME) ACTIVE
Info: PME TOLERANCE               1e-06
Info: PME EWALD COEFFICIENT       0.348832
Info: PME INTERPOLATION ORDER     4
Info: PME GRID DIMENSIONS         32 32 36
Info: PME MAXIMUM GRID SPACING    1
Info: PME CALCULATION WILL BE PERFORMED ON GPU
Info: FULL ELECTROSTATIC EVALUATION FREQUENCY      2
Info: USING VERLET I (r-RESPA) MTS SCHEME.
Info: C1 SPLITTING OF LONG RANGE ELECTROSTATICS
Info: PLACING ATOMS IN PATCHES BY HYDROGEN GROUPS
Info: RIGID BONDS TO HYDROGEN : ALL
Info:         ERROR TOLERANCE : 1e-08
Info:          MAX ITERATIONS : 100
Info: RIGID WATER USING SETTLE ALGORITHM
Info: RANDOM NUMBER SEED     1742574614
Info: USE HYDROGEN BONDS?    NO
Info: Using AMBER format force field!
Info: AMBER PARM FILE        mobley_1178614.prmtop
Info: COORDINATE PDB         mobley_1178614.pdb
Info: Exclusions will be read from PARM file!
Info: SCNB (VDW SCALING)     2
Info: USING ARITHMETIC MEAN TO COMBINE L-J SIGMA PARAMETERS
Info: BINARY COORDINATES     mobley_1178614_equil.coor
Info: SUMMARY OF PARAMETERS:
Info: 7 BONDS
Info: 5 ANGLES
Info:   5 HARMONIC
Info:   0 COSINE-BASED
Info: 3 DIHEDRAL
Info: 0 IMPROPER
Info: 0 CROSSTERM
Info: 0 VDW
Info: 28 VDW_PAIRS
Info: 0 NBTHOLE_PAIRS
Info: To read alchdata from file: mobley_1178614.pdb
Info: To read alchflag data from column: 5
Info: STRUCTURE SUMMARY:
Info: 2989 ATOMS
Info: 2989 BONDS
Info: 19 ANGLES
Info: 31 DIHEDRALS
Info: 0 IMPROPERS
Info: 0 CROSSTERMS
Info: 3031 EXCLUSIONS
Info: 2981 RIGID BONDS
Info: ALCH: 0 ATOMS TO DISAPPEAR IN FINAL STATE
Info: ALCH: 13 ATOMS TO APPEAR IN FINAL STATE
Info: 5986 DEGREES OF FREEDOM
Info: 1000 HYDROGEN GROUPS
Info: 3 ATOMS IN LARGEST HYDROGEN GROUP
Info: 1000 MIGRATION GROUPS
Info: 3 ATOMS IN LARGEST MIGRATION GROUP
Info: TOTAL MASS = 18000.4 amu
Info: TOTAL CHARGE = 0.000199974 e
Info: MASS DENSITY = 0.967472 g/cm^3
Info: ATOM DENSITY = 0.0967437 atoms/A^3
Info: ADDED 0 IMPLICIT EXCLUSIONS
Info: NONBONDED TABLE R-SQUARED SPACING: 0.0625
Info: NONBONDED TABLE SIZE: 705 POINTS
Info: REMOVING COM VELOCITY -0.0127711 0.0617202 0.0204253
Info: Use 3D box decompostion in PME FFT.
Info: Updated CUDA force table with 4096 elements.
Info: Updated CUDA LJ table with 7 x 7 elements.
Info: Found 15 unique exclusion lists needing 28 bytes
TCL: Running for 1500000 steps
ETITLE: TS BOND ANGLE DIHED IMPRP ELECT VDW BOUNDARY MISC KINETIC TOTAL TEMP POTENTIAL TOTALAVG TEMPAVG PRESSURE GPRESSURE VOLUME PRESSAVG GPRESSAVG
ENERGY: 0 2.5617 1.3559 3.0930 0.0000 -10792.0327 1441.2992 0.0000 0.0000 1779.5632 -7564.1598 299.2038 -9343.7230 -7564.1598 299.2038 -19.9292 46.6018 30896.0832 -19.9292 46.6018
ENERGY: 300000 2.4450 1.9197 3.1736 0.0000 -10835.3076 1440.3758 0.0000 0.0000 1817.5547 -7569.8387 305.5914 -9387.3934 -7575.5809 304.2092 -41.1357 24.1763 30599.7397 -82.3223 1.6107
ENERGY: 600000 4.4252 4.7108 2.9474 0.0000 -10866.3067 1453.0055 0.0000 0.0000 1814.2011 -7587.0167 305.0276 -9401.2178 -7608.3459 301.9410 217.6139 166.3474 30585.2910 77.6494 135.7847
ENERGY: 900000 2.1012 3.7205 3.3562 0.0000 -10787.4719 1394.3382 0.0000 0.0000 1778.2208 -7605.7350 298.9781 -9383.9558 -7609.2415 300.6055 -643.6786 -541.6679 30892.6670 -57.0306 9.8874
ENERGY: 1200000 2.7310 4.3962 1.5673 0.0000 -10791.0182 1402.5525 0.0000 0.0000 1767.1187 -7612.6525 297.1115 -9379.7712 -7602.7227 300.3791 -612.4945 -465.6327 30786.7621 -148.9348 -73.6505
ENERGY: 1500000 2.1081 1.3421 0.6623 0.0000 -10775.6358 1416.8810 0.0000 0.0000 1758.1505 -7596.4918 295.6036 -9354.6423 -7591.7624 301.0088 -407.5634 -328.0563 31265.1189 -245.2525 -168.2295
TCL: Running FEP window   2: Lambda1 0.95   Lambda2 0.8999999999999999 [dLambda -0.050000000000000044]
TCL: Setting parameter firsttimestep to 0
TCL: Setting parameter alchLambda to 0.95
Info: NONBONDED TABLE R-SQUARED SPACING: 0.0625
Info: NONBONDED TABLE SIZE: 705 POINTS
TCL: Setting parameter alchLambda2 to 0.8999999999999999
Info: NONBONDED TABLE R-SQUARED SPACING: 0.0625
Info: NONBONDED TABLE SIZE: 705 POINTS
TCL: Running for 1500000 steps
ETITLE: TS BOND ANGLE DIHED IMPRP ELECT VDW BOUNDARY MISC KINETIC TOTAL TEMP POTENTIAL TOTALAVG TEMPAVG PRESSURE GPRESSURE VOLUME PRESSAVG GPRESSAVG
ENERGY: 0 2.1081 1.3421 0.6623 0.0000 -10774.0481 1416.8454 0.0000 0.0000 1757.2710 -7595.8193 295.4557 -9353.0903 -7595.8193 295.4557 -429.4565 -334.3009 31265.1189 -429.4565 -334.3009
ENERGY: 300000 2.3641 3.1253 1.5633 0.0000 -10868.8119 1463.2541 0.0000 0.0000 1818.4774 -7580.0276 305.7466 -9398.5050 -7623.1477 298.1171 98.9149 180.7249 30986.2206 -361.2347 -298.0726
ENERGY: 600000 2.8872 2.7456 6.8239 0.0000 -10886.5039 1454.1373 0.0000 0.0000 1827.7685 -7592.1414 307.3087 -9419.9099 -7612.5609 299.3664 92.4239 120.8153 30604.4360 -186.5205 -124.8892
ENERGY: 900000 2.8291 3.4401 5.0248 0.0000 -10736.9917 1375.4528 0.0000 0.0000 1866.4669 -7483.7780 313.8152 -9350.2449 -7608.8443 301.0547 -93.3822 -116.1576 30325.1669 -146.5793 -100.4561
ENERGY: 1200000 2.6827 4.1485 1.0517 0.0000 -10762.1472 1394.1559 0.0000 0.0000 1756.0844 -7604.0239 295.2562 -9360.1083 -7606.3704 299.6818 -536.2316 -450.2736 31031.7271 -164.0005 -114.0560
ENERGY: 1500000 2.6694 2.0446 1.9104 0.0000 -10779.7371 1415.8527 0.0000 0.0000 1818.5907 -7538.6693 305.7656 -9357.2600 -7594.2584 300.4542 -201.5619 -152.5738 30926.3175 -51.4720 -6.6165
TCL: Running FEP window   3: Lambda1 0.8999999999999999 Lambda2 0.8499999999999999 [dLambda -0.050000000000000044]
TCL: Setting parameter firsttimestep to 0
TCL: Setting parameter alchLambda to 0.8999999999999999
Info: NONBONDED TABLE R-SQUARED SPACING: 0.0625
Info: NONBONDED TABLE SIZE: 705 POINTS
TCL: Setting parameter alchLambda2 to 0.8499999999999999
Info: NONBONDED TABLE R-SQUARED SPACING: 0.0625
Info: NONBONDED TABLE SIZE: 705 POINTS
TCL: Running for 1500000 steps
ETITLE: TS BOND ANGLE DIHED IMPRP ELECT VDW BOUNDARY MISC KINETIC TOTAL TEMP POTENTIAL TOTALAVG TEMPAVG PRESSURE GPRESSURE VOLUME PRESSAVG GPRESSAVG
ENERGY: 0 2.6694 2.0446 1.9104 0.0000 -10778.5749 1415.7386 0.0000 0.0000 1817.6604 -7538.5515 305.6092 -9356.2119 -7538.5515 305.6092 -236.9585 -161.8389 30926.3175 -236.9585 -161.8389
ENERGY: 300000 2.7366 1.6000 3.2319 0.0000 -10884.8771 1468.1316 0.0000 0.0000 1779.6989 -7629.4781 299.2266 -9409.1770 -7601.2622 296.6734 -50.3051 -4.3544 30887.7683 -40.8490 47.2272
ENERGY: 600000 1.7864 1.8835 1.7079 0.0000 -10771.7898 1413.1046 0.0000 0.0000 1779.9976 -7573.3097 299.2768 -9353.3073 -7582.9262 300.0651 -180.8071 -145.5392 30687.2374 -7.0090 60.0580
ENERGY: 900000 2.4266 1.7321 2.8105 0.0000 -10775.4571 1408.8827 0.0000 0.0000 1814.0650 -7545.5402 305.0047 -9359.6052 -7584.4248 300.7801 -458.1616 -355.1020 31251.0609 -34.2624 44.6114
ENERGY: 1200000 3.0284 1.8675 1.6643 0.0000 -10876.5489 1485.3973 0.0000 0.0000 1822.0082 -7562.5833 306.3402 -9384.5914 -7574.8057 301.5199 -57.5782 37.0244 31221.3298 44.5094 129.5593
ENERGY: 1500000 1.0811 5.2681 3.1517 0.0000 -10777.1484 1435.3018 0.0000 0.0000 1779.3032 -7553.0424 299.1601 -9332.3456 -7584.6365 300.7231 57.2324 123.4992 30672.9482 -31.2821 47.1932
TCL: Running FEP window   4: Lambda1 0.8499999999999999 Lambda2 0.7999999999999998 [dLambda -0.050000000000000044]
TCL: Setting parameter firsttimestep to 0
TCL: Setting parameter alchLambda to 0.8499999999999999
Info: NONBONDED TABLE R-SQUARED SPACING: 0.0625
Info: NONBONDED TABLE SIZE: 705 POINTS
TCL: Setting parameter alchLambda2 to 0.7999999999999998
Info: NONBONDED TABLE R-SQUARED SPACING: 0.0625
Info: NONBONDED TABLE SIZE: 705 POINTS
TCL: Running for 1500000 steps
ETITLE: TS BOND ANGLE DIHED IMPRP ELECT VDW BOUNDARY MISC KINETIC TOTAL TEMP POTENTIAL TOTALAVG TEMPAVG PRESSURE GPRESSURE VOLUME PRESSAVG GPRESSAVG
ENERGY: 0 1.0811 5.2681 3.1517 0.0000 -10775.5221 1433.5264 0.0000 0.0000 1778.4300 -7554.0647 299.0133 -9332.4947 -7554.0647 299.0133 10.0745 99.2967 30672.9482 10.0745 99.2967
ENERGY: 300000 2.3002 2.5381 1.5380 0.0000 -10696.6797 1385.6732 0.0000 0.0000 1797.0115 -7507.6187 302.1374 -9304.6302 -7568.0517 300.4806 -501.0895 -466.7044 31182.8433 -300.6284 -244.2660
ENERGY: 600000 3.1731 3.2017 4.8748 0.0000 -10945.1267 1543.3150 0.0000 0.0000 1738.0103 -7652.5519 292.2174 -9390.5622 -7591.5251 300.2320 857.5413 910.9841 30549.0774 -5.7642 53.4017
ENERGY: 900000 1.1783 2.5362 4.1847 0.0000 -10814.4248 1417.3207 0.0000 0.0000 1759.7203 -7629.4845 295.8675 -9389.2048 -7583.8981 300.6002 -70.9288 -38.9252 30413.7224 55.0375 114.7684
ENERGY: 1200000 2.8266 4.2412 2.9911 0.0000 -10901.9766 1475.8563 0.0000 0.0000 1770.4661 -7645.5953 297.6743 -9416.0614 -7592.1849 299.5109 223.9635 286.0965 30562.3778 18.3786 80.0375
ENERGY: 1500000 1.0286 4.0130 1.3684 0.0000 -10749.9770 1424.7637 0.0000 0.0000 1795.9072 -7522.8961 301.9518 -9318.8033 -7592.3378 299.5690 -44.7173 -8.5712 30810.9873 49.1824 111.9209
TCL: Running FEP window   5: Lambda1 0.7999999999999998 Lambda2 0.7499999999999998 [dLambda -0.050000000000000044]
TCL: Setting parameter firsttimestep to 0
TCL: Setting parameter alchLambda to 0.7999999999999998
Info: NONBONDED TABLE R-SQUARED SPACING: 0.0625
Info: NONBONDED TABLE SIZE: 705 POINTS
TCL: Setting parameter alchLambda2 to 0.7499999999999998
Info: NONBONDED TABLE R-SQUARED SPACING: 0.0625
Info: NONBONDED TABLE SIZE: 705 POINTS
TCL: Running for 1500000 steps
ETITLE: TS BOND ANGLE DIHED IMPRP ELECT VDW BOUNDARY MISC KINETIC TOTAL TEMP POTENTIAL TOTALAVG TEMPAVG PRESSURE GPRESSURE VOLUME PRESSAVG GPRESSAVG
ENERGY: 0 1.0286 4.0130 1.3684 0.0000 -10749.2038 1424.2381 0.0000 0.0000 1795.0411 -7523.5146 301.8061 -9318.5558 -7523.5146 301.8061 -103.2353 -22.6952 30810.9873 -103.2353 -22.6952
ENERGY: 300000 6.8781 3.8312 0.9560 0.0000 -10807.8995 1426.8328 0.0000 0.0000 1785.9788 -7583.4225 300.2825 -9369.4013 -7557.1320 300.7723 99.3126 136.1415 30599.5676 -176.9183 -141.0587
ENERGY: 600000 4.8421 3.0843 3.3999 0.0000 -10817.6439 1428.5398 0.0000 0.0000 1756.3388 -7621.4391 295.2990 -9377.7779 -7577.0963 300.4542 -40.4006 21.4161 30686.3542 -307.7520 -258.7805
ENERGY: 900000 0.9327 1.1372 3.3125 0.0000 -10876.9538 1457.7801 0.0000 0.0000 1808.7628 -7605.0286 304.1132 -9413.7914 -7578.6005 302.3576 -289.4650 -203.0292 31023.2903 -213.1610 -158.1619
ENERGY: 1200000 1.7359 3.2432 2.9697 0.0000 -10828.2978 1505.6563 0.0000 0.0000 1768.1707 -7546.5221 297.2883 -9314.6928 -7577.2308 301.5449 399.6334 462.7491 30944.4799 -115.7597 -60.7916
ENERGY: 1500000 4.8218 3.0884 3.6895 0.0000 -10730.9975 1424.8721 0.0000 0.0000 1808.4317 -7486.0939 304.0575 -9294.5256 -7575.7736 301.4914 -216.4135 -162.7455 31167.2555 -78.7433 -21.6275
TCL: Running FEP window   6: Lambda1 0.7499999999999998 Lambda2 0.6999999999999997 [dLambda -0.050000000000000044]
TCL: Setting parameter firsttimestep to 0
TCL: Setting parameter alchLambda to 0.7499999999999998
Info: NONBONDED TABLE R-SQUARED SPACING: 0.0625
Info: NONBONDED TABLE SIZE: 705 POINTS
TCL: Setting parameter alchLambda2 to 0.6999999999999997
Info: NONBONDED TABLE R-SQUARED SPACING: 0.0625
Info: NONBONDED TABLE SIZE: 705 POINTS
TCL: Running for 1500000 steps
ETITLE: TS BOND ANGLE DIHED IMPRP ELECT VDW BOUNDARY MISC KINETIC TOTAL TEMP POTENTIAL TOTALAVG TEMPAVG PRESSURE GPRESSURE VOLUME PRESSAVG GPRESSAVG
ENERGY: 0 4.8218 3.0884 3.6895 0.0000 -10730.2003 1425.0074 0.0000 0.0000 1807.5446 -7486.0485 303.9084 -9293.5931 -7486.0485 303.9084 -245.5477 -167.3684 31167.2555 -245.5477 -167.3684
ENERGY: 300000 2.8130 3.0959 2.3767 0.0000 -10924.5319 1491.2446 0.0000 0.0000 1800.9520 -7624.0496 302.8000 -9425.0016 -7561.9254 302.0618 315.0402 428.6535 30353.5197 -297.0516 -253.6524
ENERGY: 600000 1.6819 4.6508 3.5741 0.0000 -10813.3970 1454.2276 0.0000 0.0000 1805.6689 -7543.5938 303.5930 -9349.2627 -7590.7680 300.3434 227.9870 251.6640 30721.1548 -122.5633 -82.7603
ENERGY: 900000 2.2407 6.9809 3.3613 0.0000 -10882.0622 1470.0813 0.0000 0.0000 1778.9611 -7620.4368 299.1026 -9399.3979 -7593.4970 300.3211 -45.9202 26.5085 31117.5083 -83.6689 -34.7937
ENERGY: 1200000 3.8974 5.8927 3.3552 0.0000 -10954.5497 1550.7040 0.0000 0.0000 1747.3148 -7643.3855 293.7818 -9390.7004 -7601.7099 300.0768 644.1514 676.5036 30782.4965 -118.8310 -76.7120
ENERGY: 1500000 3.1518 2.5761 5.7363 0.0000 -10857.7141 1384.9387 0.0000 0.0000 1753.9842 -7707.3271 294.9031 -9461.3113 -7612.0669 299.7746 -803.1541 -779.7259 31051.4787 -224.2555 -181.0690
TCL: Running FEP window   7: Lambda1 0.6999999999999997 Lambda2 0.6499999999999997 [dLambda -0.050000000000000044]
TCL: Setting parameter firsttimestep to 0
TCL: Setting parameter alchLambda to 0.6999999999999997
Info: NONBONDED TABLE R-SQUARED SPACING: 0.0625
Info: NONBONDED TABLE SIZE: 705 POINTS
TCL: Setting parameter alchLambda2 to 0.6499999999999997
Info: NONBONDED TABLE R-SQUARED SPACING: 0.0625
Info: NONBONDED TABLE SIZE: 705 POINTS
TCL: Running for 1500000 steps
ETITLE: TS BOND ANGLE DIHED IMPRP ELECT VDW BOUNDARY MISC KINETIC TOTAL TEMP POTENTIAL TOTALAVG TEMPAVG PRESSURE GPRESSURE VOLUME PRESSAVG GPRESSAVG
ENERGY: 0 3.1518 2.5761 5.7363 0.0000 -10855.5686 1384.8365 0.0000 0.0000 1753.0810 -7706.1871 294.7512 -9459.2681 -7706.1871 294.7512 -853.5711 -778.6377 31051.4787 -853.5711 -778.6377
ENERGY: 300000 2.0454 3.1063 4.4219 0.0000 -10891.5851 1457.4431 0.0000 0.0000 1744.3172 -7680.2511 293.2778 -9424.5683 -7657.3419 295.3967 -247.2808 -228.1869 30911.0565 -640.7082 -586.2820
ENERGY: 600000 2.3076 3.9395 4.3597 0.0000 -10836.3998 1457.1550 0.0000 0.0000 1756.5842 -7612.0538 295.3403 -9368.6380 -7641.4412 296.3795 124.4935 81.7923 30638.6220 -341.6453 -306.0261
ENERGY: 900000 2.1219 0.5780 2.0188 0.0000 -11021.8981 1595.0756 0.0000 0.0000 1865.1733 -7556.9305 313.5977 -9422.1038 -7630.2617 299.0110 1139.6158 1215.0348 30742.7848 -80.3830 -38.9625
ENERGY: 1200000 2.5991 6.8691 5.3785 0.0000 -10864.7482 1474.5369 0.0000 0.0000 1753.3219 -7622.0427 294.7918 -9375.3646 -7614.9752 299.4502 346.7111 328.5313 30661.1466 -139.7080 -97.0089
ENERGY: 1500000 5.1977 3.8092 3.1051 0.0000 -10953.9843 1539.3428 0.0000 0.0000 1754.8205 -7647.7090 295.0437 -9402.5295 -7606.1521 299.5599 495.1478 484.9468 30597.7726 -161.3829 -117.5384
TCL: Running FEP window   8: Lambda1 0.6499999999999997 Lambda2 0.5999999999999996 [dLambda -0.050000000000000044]
TCL: Setting parameter firsttimestep to 0
TCL: Setting parameter alchLambda to 0.6499999999999997
Info: NONBONDED TABLE R-SQUARED SPACING: 0.0625
Info: NONBONDED TABLE SIZE: 705 POINTS
TCL: Setting parameter alchLambda2 to 0.5999999999999996
Info: NONBONDED TABLE R-SQUARED SPACING: 0.0625
Info: NONBONDED TABLE SIZE: 705 POINTS
TCL: Running for 1500000 steps
ETITLE: TS BOND ANGLE DIHED IMPRP ELECT VDW BOUNDARY MISC KINETIC TOTAL TEMP POTENTIAL TOTALAVG TEMPAVG PRESSURE GPRESSURE VOLUME PRESSAVG GPRESSAVG
ENERGY: 0 5.1977 3.8092 3.1051 0.0000 -10953.0229 1539.0152 0.0000 0.0000 1753.9447 -7647.9509 294.8965 -9401.8957 -7647.9509 294.8965 393.7549 474.5555 30597.7726 393.7549 474.5555
ENERGY: 300000 3.1019 2.9239 2.2201 0.0000 -10775.2477 1422.5944 0.0000 0.0000 1784.6994 -7559.7079 300.0673 -9344.4073 -7602.1343 302.5767 -134.8354 -18.0284 30453.1675 56.8742 130.4255
ENERGY: 600000 1.5655 7.5823 2.9634 0.0000 -10780.7899 1396.5773 0.0000 0.0000 1792.9038 -7579.1976 301.4468 -9372.1014 -7591.5353 302.1860 -130.6212 -124.4408 30500.4264 12.2218 77.5832
ENERGY: 900000 2.0997 2.9688 5.2929 0.0000 -10946.0474 1537.7102 0.0000 0.0000 1800.7771 -7597.1987 302.7706 -9397.9758 -7595.4277 300.7790 835.5765 859.0895 30484.1581 53.8164 113.0798
ENERGY: 1200000 3.2217 4.9419 2.1606 0.0000 -10869.0573 1482.9443 0.0000 0.0000 1737.3266 -7638.4622 292.1024 -9375.7888 -7592.4958 301.0569 132.6117 182.2652 30925.0787 1.3349 68.8133
ENERGY: 1500000 1.1201 7.2597 3.0244 0.0000 -10996.6396 1541.7506 0.0000 0.0000 1793.9619 -7649.5230 301.6247 -9443.4848 -7595.8921 300.3824 989.9461 1014.4909 30248.7763 150.1656 212.6605
TCL: Running FEP window   9: Lambda1 0.5999999999999996 Lambda2 0.5499999999999996 [dLambda -0.050000000000000044]
TCL: Setting parameter firsttimestep to 0
TCL: Setting parameter alchLambda to 0.5999999999999996
Info: NONBONDED TABLE R-SQUARED SPACING: 0.0625
Info: NONBONDED TABLE SIZE: 705 POINTS
TCL: Setting parameter alchLambda2 to 0.5499999999999996
Info: NONBONDED TABLE R-SQUARED SPACING: 0.0625
Info: NONBONDED TABLE SIZE: 705 POINTS
TCL: Running for 1500000 steps
ETITLE: TS BOND ANGLE DIHED IMPRP ELECT VDW BOUNDARY MISC KINETIC TOTAL TEMP POTENTIAL TOTALAVG TEMPAVG PRESSURE GPRESSURE VOLUME PRESSAVG GPRESSAVG
ENERGY: 0 1.1201 7.2597 3.0244 0.0000 -10996.5711 1541.9740 0.0000 0.0000 1793.0637 -7650.1293 301.4737 -9443.1930 -7650.1293 301.4737 927.3797 1010.9799 30248.7763 927.3797 1010.9799
ENERGY: 300000 0.8733 2.6624 0.9265 0.0000 -10747.5397 1406.0443 0.0000 0.0000 1722.3481 -7614.6852 289.5840 -9337.0332 -7609.7767 297.7769 -325.7583 -212.2474 30760.9678 -101.4579 -32.7898
ENERGY: 600000 1.0457 3.2334 3.8512 0.0000 -10780.0312 1393.9273 0.0000 0.0000 1788.8794 -7589.0943 300.7702 -9377.9736 -7610.4492 297.6056 -450.7010 -380.2231 30788.6003 -280.4724 -215.3454
ENERGY: 900000 2.5706 1.5552 1.8868 0.0000 -10791.7321 1427.4896 0.0000 0.0000 1779.4418 -7578.7882 299.1834 -9358.2300 -7600.7514 298.6199 -140.9077 -87.1308 30887.5410 -303.0085 -229.6627
ENERGY: 1200000 1.1859 2.1157 3.3962 0.0000 -10779.8492 1417.3041 0.0000 0.0000 1820.8879 -7534.9593 306.1518 -9355.8472 -7602.7534 298.6089 -483.4724 -442.5070 31125.4219 -297.7594 -241.2416
ENERGY: 1500000 3.2130 2.5615 2.1436 0.0000 -10894.7733 1478.5233 0.0000 0.0000 1735.3499 -7672.9820 291.7701 -9408.3319 -7606.2169 298.4063 113.7897 184.2630 30435.2751 -282.9054 -227.8837
TCL: Running FEP window  10: Lambda1 0.5499999999999996 Lambda2 0.4999999999999996 [dLambda -0.04999999999999999]
TCL: Setting parameter firsttimestep to 0
TCL: Setting parameter alchLambda to 0.5499999999999996
Info: NONBONDED TABLE R-SQUARED SPACING: 0.0625
Info: NONBONDED TABLE SIZE: 705 POINTS
TCL: Setting parameter alchLambda2 to 0.4999999999999996
Info: NONBONDED TABLE R-SQUARED SPACING: 0.0625
Info: NONBONDED TABLE SIZE: 705 POINTS
TCL: Running for 1500000 steps
ETITLE: TS BOND ANGLE DIHED IMPRP ELECT VDW BOUNDARY MISC KINETIC TOTAL TEMP POTENTIAL TOTALAVG TEMPAVG PRESSURE GPRESSURE VOLUME PRESSAVG GPRESSAVG
ENERGY: 0 3.2130 2.5615 2.1436 0.0000 -10895.2294 1478.8084 0.0000 0.0000 1734.4421 -7674.0608 291.6174 -9408.5029 -7674.0608 291.6174 96.2082 178.4141 30435.2751 96.2082 178.4141
ENERGY: 300000 1.6730 1.4852 2.1134 0.0000 -10674.4902 1349.4863 0.0000 0.0000 1789.5004 -7530.2318 300.8746 -9319.7323 -7593.9211 300.0471 -744.0701 -762.4702 31160.0472 -503.7686 -484.9995
ENERGY: 600000 3.8062 1.6770 2.3166 0.0000 -10833.2170 1473.3782 0.0000 0.0000 1800.6776 -7551.3613 302.7538 -9352.0389 -7604.3483 300.8743 127.8464 111.6227 31127.9740 -239.2847 -216.9694
ENERGY: 900000 1.3442 1.7652 1.9407 0.0000 -10875.8922 1487.4036 0.0000 0.0000 1811.1930 -7572.2455 304.5218 -9383.4385 -7577.5068 301.9234 163.7557 164.4724 31114.7515 -155.0709 -132.2218
ENERGY: 1200000 4.6253 2.1903 2.3209 0.0000 -10661.7149 1345.1987 0.0000 0.0000 1825.0985 -7482.2812 306.8598 -9307.3796 -7572.2319 302.3174 -824.7973 -734.2478 30989.2978 -245.9895 -203.9402
ENERGY: 1500000 2.5142 2.4063 1.4439 0.0000 -10934.7555 1470.6405 0.0000 0.0000 1807.5461 -7650.2047 303.9086 -9457.7507 -7582.3848 301.7706 -95.2943 -26.3389 30673.9865 -221.8449 -174.3476
TCL: Running FEP window  11: Lambda1 0.4999999999999996 Lambda2 0.4499999999999996 [dLambda -0.04999999999999999]
TCL: Setting parameter firsttimestep to 0
TCL: Setting parameter alchLambda to 0.4999999999999996
Info: NONBONDED TABLE R-SQUARED SPACING: 0.0625
Info: NONBONDED TABLE SIZE: 705 POINTS
TCL: Setting parameter alchLambda2 to 0.4499999999999996
Info: NONBONDED TABLE R-SQUARED SPACING: 0.0625
Info: NONBONDED TABLE SIZE: 705 POINTS
TCL: Running for 1500000 steps
ETITLE: TS BOND ANGLE DIHED IMPRP ELECT VDW BOUNDARY MISC KINETIC TOTAL TEMP POTENTIAL TOTALAVG TEMPAVG PRESSURE GPRESSURE VOLUME PRESSAVG GPRESSAVG
ENERGY: 0 2.5142 2.4063 1.4439 0.0000 -10935.1672 1470.6910 0.0000 0.0000 1806.6958 -7651.4161 303.7657 -9458.1119 -7651.4161 303.7657 -133.4468 -33.5298 30673.9865 -133.4468 -33.5298
ENERGY: 300000 1.1940 1.5982 3.8300 0.0000 -10988.0298 1584.9583 0.0000 0.0000 1784.3397 -7612.1096 300.0069 -9396.4493 -7617.0378 299.9062 938.6917 993.9301 30801.0950 242.7879 297.5450
ENERGY: 600000 1.6970 5.2633 2.2891 0.0000 -10735.6427 1389.9159 0.0000 0.0000 1758.6548 -7577.8227 295.6884 -9336.4774 -7602.6942 298.0662 -669.3646 -629.9308 31038.2602 -10.9465 31.7515
ENERGY: 900000 1.3115 2.5310 7.8238 0.0000 -10814.3622 1463.2955 0.0000 0.0000 1825.7596 -7513.6408 306.9709 -9339.4004 -7583.0857 300.8856 119.8163 188.9795 30618.1238 -99.9714 -44.0100
ENERGY: 1200000 0.7461 2.6750 4.6144 0.0000 -10831.0087 1493.8045 0.0000 0.0000 1805.3575 -7523.8112 303.5407 -9329.1687 -7589.9301 300.5567 542.9093 556.3289 30566.7982 -121.9393 -71.1377
ENERGY: 1500000 1.9523 5.6699 3.2364 0.0000 -10865.5390 1496.9100 0.0000 0.0000 1772.3916 -7585.3787 297.9980 -9357.7704 -7586.1026 299.7368 456.6180 594.3760 30280.0142 -49.8493 4.2697
TCL: Running FEP window  12: Lambda1 0.4499999999999996 Lambda2 0.39999999999999963 [dLambda -0.04999999999999999]
TCL: Setting parameter firsttimestep to 0
TCL: Setting parameter alchLambda to 0.4499999999999996
Info: NONBONDED TABLE R-SQUARED SPACING: 0.0625
Info: NONBONDED TABLE SIZE: 705 POINTS
TCL: Setting parameter alchLambda2 to 0.39999999999999963
Info: NONBONDED TABLE R-SQUARED SPACING: 0.0625
Info: NONBONDED TABLE SIZE: 705 POINTS
TCL: Running for 1500000 steps
ETITLE: TS BOND ANGLE DIHED IMPRP ELECT VDW BOUNDARY MISC KINETIC TOTAL TEMP POTENTIAL TOTALAVG TEMPAVG PRESSURE GPRESSURE VOLUME PRESSAVG GPRESSAVG
ENERGY: 0 1.9523 5.6699 3.2364 0.0000 -10865.5388 1497.0739 0.0000 0.0000 1771.5213 -7586.0850 297.8517 -9357.6063 -7586.0850 297.8517 490.8835 588.2937 30280.0142 490.8835 588.2937
ENERGY: 300000 5.1989 2.1150 2.1904 0.0000 -10805.3397 1463.1546 0.0000 0.0000 1806.4707 -7526.2102 303.7278 -9332.6809 -7589.9849 299.3164 -267.9006 -185.7680 31268.2953 51.3030 138.9044
ENERGY: 600000 1.7010 2.3137 4.7702 0.0000 -10861.0151 1514.5202 0.0000 0.0000 1821.2483 -7516.4617 306.2124 -9337.7100 -7578.6953 299.3649 469.4863 601.0324 30701.2246 55.6054 145.5011
ENERGY: 900000 3.0806 3.8231 2.6836 0.0000 -10910.8772 1510.7653 0.0000 0.0000 1788.2639 -7602.2607 300.6667 -9390.5247 -7578.0886 299.7113 123.8783 140.9089 31018.1645 121.0659 202.6199
ENERGY: 1200000 3.5129 2.7828 3.4071 0.0000 -10687.2947 1393.2077 0.0000 0.0000 1792.9359 -7491.4483 301.4522 -9284.3842 -7579.9101 299.7464 -461.1795 -375.1921 30966.5020 42.6358 122.7518
ENERGY: 1500000 2.2817 4.9059 3.1848 0.0000 -10776.3335 1411.7868 0.0000 0.0000 1814.8614 -7539.3130 305.1386 -9354.1744 -7582.7818 299.9327 -564.9407 -511.5941 31210.1453 -1.7313 76.3306
TCL: Running FEP window  13: Lambda1 0.39999999999999963 Lambda2 0.34999999999999964 [dLambda -0.04999999999999999]
TCL: Setting parameter firsttimestep to 0
TCL: Setting parameter alchLambda to 0.39999999999999963
Info: NONBONDED TABLE R-SQUARED SPACING: 0.0625
Info: NONBONDED TABLE SIZE: 705 POINTS
TCL: Setting parameter alchLambda2 to 0.34999999999999964
Info: NONBONDED TABLE R-SQUARED SPACING: 0.0625
Info: NONBONDED TABLE SIZE: 705 POINTS
TCL: Running for 1500000 steps
ETITLE: TS BOND ANGLE DIHED IMPRP ELECT VDW BOUNDARY MISC KINETIC TOTAL TEMP POTENTIAL TOTALAVG TEMPAVG PRESSURE GPRESSURE VOLUME PRESSAVG GPRESSAVG
ENERGY: 0 2.2817 4.9059 3.1848 0.0000 -10776.3352 1411.6555 0.0000 0.0000 1814.0096 -7540.2977 304.9954 -9354.3073 -7540.2977 304.9954 -611.7899 -515.9066 31210.1453 -611.7899 -515.9066
ENERGY: 300000 1.1324 1.5459 5.1688 0.0000 -10713.7068 1397.8722 0.0000 0.0000 1798.9750 -7509.0124 302.4676 -9307.9875 -7533.2134 301.5606 -375.7870 -255.1993 30883.7172 -620.8574 -541.8220
ENERGY: 600000 5.0956 4.4999 4.6371 0.0000 -10704.1011 1297.3000 0.0000 0.0000 1804.5153 -7588.0532 303.3991 -9392.5684 -7568.4032 302.5782 -1406.1236 -1350.2581 30848.1929 -568.6900 -515.0818
ENERGY: 900000 2.6072 0.8114 3.3797 0.0000 -10812.7720 1473.2769 0.0000 0.0000 1799.4236 -7533.2731 302.5430 -9332.6967 -7575.7804 300.6556 95.4500 118.2469 30945.9247 -443.6150 -387.2438
ENERGY: 1200000 2.6681 1.5476 2.5547 0.0000 -10840.7498 1555.2196 0.0000 0.0000 1804.3161 -7474.4438 303.3656 -9278.7598 -7571.7467 300.4606 843.4692 930.0179 31105.9043 -311.5203 -251.3059
ENERGY: 1500000 3.4464 1.8878 2.7160 0.0000 -10894.7647 1425.0982 0.0000 0.0000 1837.4484 -7624.1679 308.9362 -9461.6163 -7589.7247 300.2553 -420.0240 -360.7271 30689.1872 -299.5119 -239.7644
TCL: Running FEP window  14: Lambda1 0.34999999999999964 Lambda2 0.29999999999999966 [dLambda -0.04999999999999999]
TCL: Setting parameter firsttimestep to 0
TCL: Setting parameter alchLambda to 0.34999999999999964
Info: NONBONDED TABLE R-SQUARED SPACING: 0.0625
Info: NONBONDED TABLE SIZE: 705 POINTS
TCL: Setting parameter alchLambda2 to 0.29999999999999966
Info: NONBONDED TABLE R-SQUARED SPACING: 0.0625
Info: NONBONDED TABLE SIZE: 705 POINTS
TCL: Running for 1500000 steps
ETITLE: TS BOND ANGLE DIHED IMPRP ELECT VDW BOUNDARY MISC KINETIC TOTAL TEMP POTENTIAL TOTALAVG TEMPAVG PRESSURE GPRESSURE VOLUME PRESSAVG GPRESSAVG
ENERGY: 0 3.4463 1.8878 2.7160 0.0000 -10894.7642 1425.0820 0.0000 0.0000 1836.5757 -7625.0563 308.7895 -9461.6320 -7625.0563 308.7895 -436.2493 -365.9538 30689.1872 -436.2493 -365.9538
ENERGY: 300000 2.1214 1.8847 2.1356 0.0000 -10899.2400 1480.1852 0.0000 0.0000 1823.1387 -7589.7743 306.5303 -9412.9130 -7634.6747 301.2774 201.9420 276.1119 30645.8215 109.8478 172.5086
ENERGY: 600000 0.8452 3.4161 3.3501 0.0000 -10694.4227 1340.3066 0.0000 0.0000 1664.5941 -7681.9106 279.8737 -9346.5047 -7622.6254 298.7204 -1209.2902 -1216.6990 31403.9095 -304.9014 -252.3852
ENERGY: 900000 3.0230 1.7436 2.5872 0.0000 -10698.9059 1328.6536 0.0000 0.0000 1796.2095 -7566.6890 302.0026 -9362.8985 -7607.2029 300.4623 -1026.7399 -927.0719 30875.9988 -271.8673 -209.1545
ENERGY: 1200000 1.6389 2.7639 3.7998 0.0000 -10933.1098 1479.5541 0.0000 0.0000 1798.2627 -7647.0903 302.3478 -9445.3530 -7600.7497 301.5785 -102.0944 -57.4721 30768.6240 -211.0030 -148.1745
ENERGY: 1500000 5.1306 1.5248 2.6751 0.0000 -10900.4859 1474.6489 0.0000 0.0000 1776.0393 -7640.4672 298.6113 -9416.5065 -7605.4720 300.9970 70.1569 111.3426 30567.8422 -173.6734 -113.5610
TCL: Running FEP window  15: Lambda1 0.29999999999999966 Lambda2 0.24999999999999967 [dLambda -0.04999999999999999]
TCL: Setting parameter firsttimestep to 0
TCL: Setting parameter alchLambda to 0.29999999999999966
Info: NONBONDED TABLE R-SQUARED SPACING: 0.0625
Info: NONBONDED TABLE SIZE: 705 POINTS
TCL: Setting parameter alchLambda2 to 0.24999999999999967
Info: NONBONDED TABLE R-SQUARED SPACING: 0.0625
Info: NONBONDED TABLE SIZE: 705 POINTS
TCL: Running for 1500000 steps
ETITLE: TS BOND ANGLE DIHED IMPRP ELECT VDW BOUNDARY MISC KINETIC TOTAL TEMP POTENTIAL TOTALAVG TEMPAVG PRESSURE GPRESSURE VOLUME PRESSAVG GPRESSAVG
ENERGY: 0 5.1306 1.5248 2.6751 0.0000 -10900.4861 1474.7933 0.0000 0.0000 1775.1512 -7641.2111 298.4620 -9416.3622 -7641.2111 298.4620 25.4477 110.3840 30567.8422 25.4477 110.3840
ENERGY: 300000 1.0058 8.4370 1.3732 0.0000 -10826.5384 1460.2161 0.0000 0.0000 1753.3674 -7602.1389 294.7994 -9355.5063 -7609.8614 297.6309 -251.1249 -201.9724 31215.3620 20.6094 113.5825
ENERGY: 600000 4.8250 5.1220 3.1671 0.0000 -10647.5780 1303.6378 0.0000 0.0000 1759.2647 -7571.5615 295.7909 -9330.8262 -7588.8034 300.1173 -1445.0782 -1406.9865 31281.0852 -241.8834 -165.2583
ENERGY: 900000 2.3555 3.8981 1.7623 0.0000 -10818.1585 1454.2777 0.0000 0.0000 1793.5663 -7562.2986 301.5582 -9355.8649 -7590.4196 299.2682 -195.1376 -140.9584 30952.0897 -163.9865 -91.7622
ENERGY: 1200000 2.2048 2.6467 3.8624 0.0000 -10781.6401 1421.6973 0.0000 0.0000 1781.3507 -7569.8782 299.5043 -9351.2289 -7599.8034 298.9989 -415.0865 -393.8133 30962.8248 -111.3943 -40.5492
ENERGY: 1500000 1.4072 1.0129 1.9671 0.0000 -10908.1442 1468.1990 0.0000 0.0000 1741.6422 -7693.9158 292.8280 -9435.5580 -7611.7778 298.7876 -255.9696 -172.0180 30554.1899 -133.7313 -57.8986
TCL: Running FEP window  16: Lambda1 0.24999999999999967 Lambda2 0.19999999999999968 [dLambda -0.04999999999999999]
TCL: Setting parameter firsttimestep to 0
TCL: Setting parameter alchLambda to 0.24999999999999967
Info: NONBONDED TABLE R-SQUARED SPACING: 0.0625
Info: NONBONDED TABLE SIZE: 705 POINTS
TCL: Setting parameter alchLambda2 to 0.19999999999999968
Info: NONBONDED TABLE R-SQUARED SPACING: 0.0625
Info: NONBONDED TABLE SIZE: 705 POINTS
TCL: Running for 1500000 steps
ETITLE: TS BOND ANGLE DIHED IMPRP ELECT VDW BOUNDARY MISC KINETIC TOTAL TEMP POTENTIAL TOTALAVG TEMPAVG PRESSURE GPRESSURE VOLUME PRESSAVG GPRESSAVG
ENERGY: 0 1.4072 1.0129 1.9671 0.0000 -10908.1442 1468.5791 0.0000 0.0000 1740.7688 -7694.4091 292.6812 -9435.1779 -7694.4091 292.6812 -263.2380 -173.5934 30554.1899 -263.2380 -173.5934
ENERGY: 300000 2.8477 2.2329 1.2135 0.0000 -10945.4259 1540.6039 0.0000 0.0000 1772.8595 -7625.6684 298.0767 -9398.5279 -7637.2405 294.0362 484.7483 535.8523 30583.9241 216.2443 284.9376
ENERGY: 600000 2.2258 4.0911 1.7261 0.0000 -10823.7044 1464.0737 0.0000 0.0000 1815.5420 -7536.0457 305.2530 -9351.5877 -7606.8228 297.9462 -95.7726 -11.6080 31000.5803 172.7663 241.1552
ENERGY: 900000 1.8906 5.6582 1.1396 0.0000 -10744.3583 1464.2040 0.0000 0.0000 1824.7297 -7446.7362 306.7978 -9271.4659 -7583.4802 299.3063 221.6174 297.9446 30773.5823 116.7774 193.4208
ENERGY: 1200000 2.3268 5.1151 0.9762 0.0000 -10820.5232 1462.5622 0.0000 0.0000 1813.0252 -7536.5177 304.8299 -9349.5429 -7571.7221 301.2627 -178.2080 -77.1698 30986.8759 87.0783 167.0536
ENERGY: 1500000 1.8438 1.9379 4.5166 0.0000 -10718.6186 1370.2097 0.0000 0.0000 1806.7936 -7533.3171 303.7821 -9340.1107 -7576.9859 300.6920 -668.5253 -574.6346 30777.4144 -81.4579 0.9315
TCL: Running FEP window  17: Lambda1 0.19999999999999968 Lambda2 0.1499999999999997 [dLambda -0.04999999999999999]
TCL: Setting parameter firsttimestep to 0
TCL: Setting parameter alchLambda to 0.19999999999999968
Info: NONBONDED TABLE R-SQUARED SPACING: 0.0625
Info: NONBONDED TABLE SIZE: 705 POINTS
TCL: Setting parameter alchLambda2 to 0.1499999999999997
Info: NONBONDED TABLE R-SQUARED SPACING: 0.0625
Info: NONBONDED TABLE SIZE: 705 POINTS
TCL: Running for 1500000 steps
ETITLE: TS BOND ANGLE DIHED IMPRP ELECT VDW BOUNDARY MISC KINETIC TOTAL TEMP POTENTIAL TOTALAVG TEMPAVG PRESSURE GPRESSURE VOLUME PRESSAVG GPRESSAVG
ENERGY: 0 1.8438 1.9379 4.5166 0.0000 -10718.6209 1369.8500 0.0000 0.0000 1805.9280 -7534.5447 303.6366 -9340.4727 -7534.5447 303.6366 -662.5644 -581.5143 30777.4144 -662.5644 -581.5143
ENERGY: 300000 2.0439 3.8626 3.0365 0.0000 -10852.0176 1484.7217 0.0000 0.0000 1748.0190 -7610.3340 293.9002 -9358.3530 -7632.9945 297.9541 239.4823 323.9716 30619.5803 -79.7375 -2.6313
ENERGY: 600000 2.5867 7.2857 6.2138 0.0000 -10915.1681 1476.6247 0.0000 0.0000 1757.1157 -7665.3414 295.4296 -9422.4571 -7644.9266 296.7763 -155.2643 -77.6662 30646.2327 -163.4372 -91.2815
ENERGY: 900000 3.4615 8.4091 2.4906 0.0000 -10910.9126 1492.9240 0.0000 0.0000 1761.7646 -7641.8629 296.2113 -9403.6275 -7639.3391 296.7824 446.3207 480.5570 30110.9206 -138.5487 -71.3304
ENERGY: 1200000 3.0451 2.2247 1.9779 0.0000 -10869.6052 1512.9364 0.0000 0.0000 1749.2840 -7600.1371 294.1128 -9349.4210 -7628.9160 297.1570 454.1552 525.3383 30625.1642 -98.7278 -40.9112
ENERGY: 1500000 1.6008 4.1542 2.8036 0.0000 -10719.7361 1435.7602 0.0000 0.0000 1761.3695 -7514.0478 296.1448 -9275.4173 -7610.7635 297.1527 240.9884 259.4199 30759.7438 -21.1715 30.3814
TCL: Running FEP window  18: Lambda1 0.1499999999999997 Lambda2 0.09999999999999969 [dLambda -0.05 ]
TCL: Setting parameter firsttimestep to 0
TCL: Setting parameter alchLambda to 0.1499999999999997
Info: NONBONDED TABLE R-SQUARED SPACING: 0.0625
Info: NONBONDED TABLE SIZE: 705 POINTS
TCL: Setting parameter alchLambda2 to 0.09999999999999969
Info: NONBONDED TABLE R-SQUARED SPACING: 0.0625
Info: NONBONDED TABLE SIZE: 705 POINTS
TCL: Running for 1500000 steps
ETITLE: TS BOND ANGLE DIHED IMPRP ELECT VDW BOUNDARY MISC KINETIC TOTAL TEMP POTENTIAL TOTALAVG TEMPAVG PRESSURE GPRESSURE VOLUME PRESSAVG GPRESSAVG
ENERGY: 0 1.6008 4.1542 2.8036 0.0000 -10719.7364 1435.2732 0.0000 0.0000 1760.4837 -7515.4209 295.9959 -9275.9046 -7515.4209 295.9959 170.9783 253.5395 30759.7438 170.9783 253.5395
ENERGY: 300000 3.3157 3.8086 3.2620 0.0000 -10917.4666 1432.9690 0.0000 0.0000 1819.0107 -7655.1007 305.8362 -9474.1114 -7584.0542 300.9645 -402.0815 -368.0799 30494.3928 60.5313 129.2788
ENERGY: 600000 1.0947 1.6821 3.0017 0.0000 -10920.6465 1454.3381 0.0000 0.0000 1804.9536 -7655.5762 303.4728 -9460.5297 -7577.5418 301.5914 -189.8805 -155.7425 30350.6304 54.4993 127.9022
ENERGY: 900000 5.2457 4.8144 2.3983 0.0000 -10715.5346 1431.1600 0.0000 0.0000 1776.1843 -7495.7320 298.6357 -9271.9163 -7562.0249 300.9269 -135.4273 -41.9386 31045.9943 40.2178 108.6406
ENERGY: 1200000 2.7332 4.1228 2.1607 0.0000 -10787.3258 1410.6497 0.0000 0.0000 1806.9792 -7560.6802 303.8133 -9367.6594 -7570.4904 300.1270 -324.5929 -296.8713 30926.9069 99.4910 165.8843
ENERGY: 1500000 4.4958 3.0596 3.9219 0.0000 -10914.2549 1520.6866 0.0000 0.0000 1832.4054 -7549.6856 308.0883 -9382.0910 -7565.0314 301.0533 410.3431 496.9843 30780.9336 72.5371 139.5452
TCL: Running FEP window  19: Lambda1 0.09999999999999969 Lambda2 0.049999999999999684 [dLambda -0.05 ]
TCL: Setting parameter firsttimestep to 0
TCL: Setting parameter alchLambda to 0.09999999999999969
Info: NONBONDED TABLE R-SQUARED SPACING: 0.0625
Info: NONBONDED TABLE SIZE: 705 POINTS
TCL: Setting parameter alchLambda2 to 0.049999999999999684
Info: NONBONDED TABLE R-SQUARED SPACING: 0.0625
Info: NONBONDED TABLE SIZE: 705 POINTS
TCL: Running for 1500000 steps
ETITLE: TS BOND ANGLE DIHED IMPRP ELECT VDW BOUNDARY MISC KINETIC TOTAL TEMP POTENTIAL TOTALAVG TEMPAVG PRESSURE GPRESSURE VOLUME PRESSAVG GPRESSAVG
ENERGY: 0 4.4957 3.0596 3.9219 0.0000 -10914.2554 1520.5971 0.0000 0.0000 1831.5511 -7550.6300 307.9447 -9382.1811 -7550.6300 307.9447 402.4514 494.8145 30780.9336 402.4514 494.8145
ENERGY: 300000 3.8971 1.1316 3.1211 0.0000 -10871.8949 1513.7877 0.0000 0.0000 1817.2898 -7532.6676 305.5469 -9349.9575 -7552.2428 301.9590 471.0424 525.7874 30673.6830 567.0994 635.1344
ENERGY: 600000 2.0273 2.1262 4.3967 0.0000 -10744.3403 1371.6909 0.0000 0.0000 1769.9321 -7594.1671 297.5845 -9364.0992 -7565.5045 301.3458 -803.3126 -740.8785 30953.6822 351.5823 424.4199
ENERGY: 900000 1.9676 5.4746 6.4048 0.0000 -10877.2234 1458.2377 0.0000 0.0000 1781.8457 -7623.2930 299.5876 -9405.1387 -7582.9636 300.9501 143.9169 214.3065 30081.3325 261.8838 330.9375
ENERGY: 1200000 1.4594 2.5417 3.1967 0.0000 -10715.5349 1429.9712 0.0000 0.0000 1772.9903 -7505.3756 298.0987 -9278.3659 -7572.2683 300.1644 -200.4271 -136.7831 31127.2388 127.2949 195.1545
ENERGY: 1500000 2.2710 3.3060 1.2636 0.0000 -10829.7004 1389.0121 0.0000 0.0000 1747.5681 -7686.2796 293.8243 -9433.8477 -7577.6277 300.2396 -762.0641 -663.8466 30552.1578 39.4238 110.3323
TCL: Running FEP window  20: Lambda1 0.049999999999999684 Lambda2 0.0    [dLambda -0.049999999999999684]
TCL: Setting parameter firsttimestep to 0
TCL: Setting parameter alchLambda to 0.049999999999999684
Info: NONBONDED TABLE R-SQUARED SPACING: 0.0625
Info: NONBONDED TABLE SIZE: 705 POINTS
TCL: Setting parameter alchLambda2 to 0.0
Info: NONBONDED TABLE R-SQUARED SPACING: 0.0625
Info: NONBONDED TABLE SIZE: 705 POINTS
TCL: Running for 1500000 steps
ETITLE: TS BOND ANGLE DIHED IMPRP ELECT VDW BOUNDARY MISC KINETIC TOTAL TEMP POTENTIAL TOTALAVG TEMPAVG PRESSURE GPRESSURE VOLUME PRESSAVG GPRESSAVG
ENERGY: 0 2.2710 3.3060 1.2636 0.0000 -10829.7003 1388.9877 0.0000 0.0000 1746.6560 -7687.2159 293.6710 -9433.8719 -7687.2159 293.6710 -763.4404 -667.9782 30552.1578 -763.4404 -667.9782
ENERGY: 300000 2.9914 4.0669 5.3940 0.0000 -10720.5196 1420.0719 0.0000 0.0000 1755.1469 -7532.8484 295.0986 -9287.9954 -7625.3620 296.6884 -340.5332 -275.5793 31081.5873 -503.2687 -430.3715
ENERGY: 600000 3.5358 1.8929 3.6328 0.0000 -10653.3030 1406.6216 0.0000 0.0000 1815.9083 -7421.7115 305.3146 -9237.6199 -7563.7223 300.0231 -338.5183 -338.1961 31153.8028 -568.6526 -500.6174
ENERGY: 900000 5.5233 3.6659 4.3129 0.0000 -10699.4552 1398.8866 0.0000 0.0000 1754.7602 -7532.3062 295.0336 -9287.0664 -7575.2073 298.0210 -352.7499 -267.7258 30541.1804 -386.7670 -319.8263
ENERGY: 1200000 2.1639 1.3674 0.9013 0.0000 -10925.1973 1490.3776 0.0000 0.0000 1743.6307 -7686.7564 293.1623 -9430.3871 -7590.4669 297.3701 243.5524 297.7570 30280.6130 -294.3569 -234.0766
ENERGY: 1500000 2.7760 3.0529 3.5724 0.0000 -10792.4070 1461.8082 0.0000 0.0000 1763.0743 -7558.1230 296.4315 -9321.1974 -7587.6724 296.6211 -29.7815 36.4101 30920.8960 -309.2803 -257.9117
TCL: Exiting due to exit command.
