Info: SIMULATION PARAMETERS:
Info: TIMESTEP               2
Info: NUMBER OF STEPS        0
Info: STEPS PER CYCLE        10
Info: PERIODIC CELL BASIS 1  30.9539 0 0
Info: PERIODIC CELL BASIS 2  0 31.6556 0
Info: PERIODIC CELL BASIS 3  0 0 31.606
Info: PERIODIC CELL CENTER   0 0 0
Info: WRAPPING WATERS AROUND PERIODIC BOUNDARIES ON OUTPUT.
Info: WRAPPING ALL CLUSTERS AROUND PERIODIC BOUNDARIES ON OUTPUT.
Info: FIRST LDB TIMESTEP     50
Info: LAST LDB TIMESTEP     -1
Info: HOM BACKGROUND SCALING 1
Info: PME BACKGROUND SCALING 1
Info: MIN ATOMS PER PATCH    40
Info: EMPTY PATCH LOAD       40 ATOMS
Info: VELOCITY FILE          mobley_9434451_equil.vel
Info: CENTER OF MASS MOVING INITIALLY? NO
Info: DIELECTRIC             1
Info: EXCLUDE                SCALED ONE-FOUR
Info: 1-4 ELECTROSTATICS SCALED BY 0.833333
Info: MODIFIED 1-4 VDW PARAMETERS WILL BE USED
Info: DCD FILENAME           mobley_9434451_prod.dcd
Info: DCD FREQUENCY          100000
Info: DCD FIRST STEP         100000
Info: DCD FILE WILL CONTAIN UNIT CELL DATA
Info: XST FILENAME           mobley_9434451_prod.xst
Info: XST FREQUENCY          100000
Info: NO VELOCITY DCD OUTPUT
Info: NO FORCE DCD OUTPUT
Info: OUTPUT FILENAME        mobley_9434451_prod
Info: BINARY OUTPUT FILES WILL BE USED
Info: RESTART FILENAME       mobley_9434451_prod.restart
Info: RESTART FREQUENCY      100000
Info: BINARY RESTART FILES WILL BE USED
Info: CUTOFF                 9
Info: PAIRLIST DISTANCE      11
Info: PAIRLIST SHRINK RATE   0.01
Info: PAIRLIST GROW RATE     0.01
Info: PAIRLIST TRIGGER       0.3
Info: PAIRLISTS PER CYCLE    2
Info: PAIRLISTS ENABLED
Info: MARGIN                 2
Info: HYDROGEN GROUP CUTOFF  2.5
Info: PATCH DIMENSION        15.5
Info: ENERGY OUTPUT STEPS    100000
Info: ENERGY EVALUATION STEPS    100000
Info: OUTPUT ENERGY PRECISION 4
Info: CROSSTERM ENERGY INCLUDED IN DIHEDRAL
Info: TIMING OUTPUT STEPS    1000000
Info: PRESSURE OUTPUT STEPS  100000
Info: ALCHEMICAL FEP ON
Info: FEP CURRENT LAMBDA VALUE     1
Info: FEP COMPARISON LAMBDA VALUE  0.95
Info: FEP INTRA-ALCHEMICAL NON-BONDED INTERACTIONS WILL BE RETAINED
Info: FEP INTRA-ALCHEMICAL BONDED INTERACTIONS WILL BE RETAINED
Info: FEP VDW SHIFTING COEFFICIENT 5
Info: FEP ELEC. ACTIVE FOR ANNIHILATED PARTICLES BETWEEN LAMBDA = 0 AND LAMBDA = 0.5
Info: FEP ELEC. ACTIVE FOR EXNIHILATED PARTICLES BETWEEN LAMBDA = 0.5 AND LAMBDA = 1
Info: FEP VDW ACTIVE FOR ANNIHILATED PARTICLES BETWEEN LAMBDA = 0 AND LAMBDA = 1
Info: FEP VDW ACTIVE FOR EXNIHILATED PARTICLES BETWEEN LAMBDA = 0 AND LAMBDA = 1
Info: FEP BOND ACTIVE FOR ANNIHILATED PARTICLES BETWEEN LAMBDA = 1 AND LAMBDA = 1
Info: FEP BOND ACTIVE FOR EXNIHILATED PARTICLES BETWEEN LAMBDA = 0 AND LAMBDA = 0
Info: LANGEVIN DYNAMICS ACTIVE
Info: LANGEVIN TEMPERATURE   300
Info: LANGEVIN USING BBK INTEGRATOR
Info: LANGEVIN DAMPING COEFFICIENT IS 1 INVERSE PS
Info: LANGEVIN DYNAMICS APPLIED TO HYDROGENS
Info: LANGEVIN PISTON PRESSURE CONTROL ACTIVE
Info:        TARGET PRESSURE IS 1.01325 BAR
Info:     OSCILLATION PERIOD IS 50 FS
Info:             DECAY TIME IS 25 FS
Info:     PISTON TEMPERATURE IS 300 K
Info:       PRESSURE CONTROL IS GROUP-BASED
Info:    INITIAL STRAIN RATE IS 0.00039062 0.00039062 0.00039062
Info:       CELL FLUCTUATION IS ISOTROPIC
Info: PARTICLE MESH EWALD (PME) ACTIVE
Info: PME TOLERANCE               1e-06
Info: PME EWALD COEFFICIENT       0.348832
Info: PME INTERPOLATION ORDER     4
Info: PME GRID DIMENSIONS         32 32 32
Info: PME MAXIMUM GRID SPACING    1
Info: PME CALCULATION WILL BE PERFORMED ON GPU
Info: FULL ELECTROSTATIC EVALUATION FREQUENCY      2
Info: USING VERLET I (r-RESPA) MTS SCHEME.
Info: C1 SPLITTING OF LONG RANGE ELECTROSTATICS
Info: PLACING ATOMS IN PATCHES BY HYDROGEN GROUPS
Info: RIGID BONDS TO HYDROGEN : ALL
Info:         ERROR TOLERANCE : 1e-08
Info:          MAX ITERATIONS : 100
Info: RIGID WATER USING SETTLE ALGORITHM
Info: RANDOM NUMBER SEED     1742553755
Info: USE HYDROGEN BONDS?    NO
Info: Using AMBER format force field!
Info: AMBER PARM FILE        mobley_9434451.prmtop
Info: COORDINATE PDB         mobley_9434451.pdb
Info: Exclusions will be read from PARM file!
Info: SCNB (VDW SCALING)     2
Info: USING ARITHMETIC MEAN TO COMBINE L-J SIGMA PARAMETERS
Info: BINARY COORDINATES     mobley_9434451_equil.coor
Info: SUMMARY OF PARAMETERS:
Info: 6 BONDS
Info: 6 ANGLES
Info:   6 HARMONIC
Info:   0 COSINE-BASED
Info: 3 DIHEDRAL
Info: 0 IMPROPER
Info: 0 CROSSTERM
Info: 0 VDW
Info: 21 VDW_PAIRS
Info: 0 NBTHOLE_PAIRS
Info: To read alchdata from file: mobley_9434451.pdb
Info: To read alchflag data from column: 5
Info: STRUCTURE SUMMARY:
Info: 2978 ATOMS
Info: 2977 BONDS
Info: 18 ANGLES
Info: 18 DIHEDRALS
Info: 0 IMPROPERS
Info: 0 CROSSTERMS
Info: 3013 EXCLUSIONS
Info: 2974 RIGID BONDS
Info: ALCH: 0 ATOMS TO DISAPPEAR IN FINAL STATE
Info: ALCH: 11 ATOMS TO APPEAR IN FINAL STATE
Info: 5960 DEGREES OF FREEDOM
Info: 993 HYDROGEN GROUPS
Info: 4 ATOMS IN LARGEST HYDROGEN GROUP
Info: 993 MIGRATION GROUPS
Info: 4 ATOMS IN LARGEST MIGRATION GROUP
Info: TOTAL MASS = 17940.8 amu
Info: TOTAL CHARGE = -0.000299979 e
Info: MASS DENSITY = 0.961979 g/cm^3
Info: ATOM DENSITY = 0.0961588 atoms/A^3
Info: ADDED 0 IMPLICIT EXCLUSIONS
Info: NONBONDED TABLE R-SQUARED SPACING: 0.0625
Info: NONBONDED TABLE SIZE: 705 POINTS
Info: REMOVING COM VELOCITY 0.0163651 -0.0625946 0.170965
Info: Use 3D box decompostion in PME FFT.
Info: Updated CUDA force table with 4096 elements.
Info: Updated CUDA LJ table with 6 x 6 elements.
Info: Found 14 unique exclusion lists needing 24 bytes
TCL: Running for 1500000 steps
ETITLE: TS BOND ANGLE DIHED IMPRP ELECT VDW BOUNDARY MISC KINETIC TOTAL TEMP POTENTIAL TOTALAVG TEMPAVG PRESSURE GPRESSURE VOLUME PRESSAVG GPRESSAVG
ENERGY: 0 0.5281 4.5974 0.3726 0.0000 -10895.1651 1480.5221 0.0000 0.0000 1773.4042 -7635.7407 299.4690 -9409.1448 -7635.7407 299.4690 -146.3140 -63.8513 30969.6087 -146.3140 -63.8513
ENERGY: 300000 0.3040 2.7949 0.2120 0.0000 -10838.7063 1456.1216 0.0000 0.0000 1783.6478 -7595.6260 301.1988 -9379.2738 -7634.0175 299.1875 103.6293 111.7404 30800.1164 142.7431 171.9603
ENERGY: 600000 0.5959 2.1429 0.0598 0.0000 -10861.9124 1492.8317 0.0000 0.0000 1798.1340 -7568.1480 303.6450 -9366.2820 -7601.6829 300.7002 462.1500 479.8976 30470.1332 205.6585 257.8839
ENERGY: 900000 0.5919 4.0756 1.0758 0.0000 -10531.2349 1326.7904 0.0000 0.0000 1801.7421 -7396.9592 304.2543 -9198.7013 -7573.1210 300.2668 -739.6977 -641.6945 31130.0247 34.9418 95.6154
ENERGY: 1200000 0.6420 3.9446 0.0486 0.0000 -10872.8556 1475.3108 0.0000 0.0000 1832.6746 -7560.2350 309.4778 -9392.9096 -7577.9948 299.9616 384.1970 440.2573 30274.8320 2.0701 71.1903
ENERGY: 1500000 0.5919 3.2479 1.1321 0.0000 -10811.4488 1435.7391 0.0000 0.0000 1748.7932 -7621.9446 295.3130 -9370.7377 -7581.6984 299.7691 -355.7257 -266.5447 30928.0255 38.9029 104.2990
TCL: Running FEP window   2: Lambda1 0.95   Lambda2 0.8999999999999999 [dLambda -0.050000000000000044]
TCL: Setting parameter firsttimestep to 0
TCL: Setting parameter alchLambda to 0.95
Info: NONBONDED TABLE R-SQUARED SPACING: 0.0625
Info: NONBONDED TABLE SIZE: 705 POINTS
TCL: Setting parameter alchLambda2 to 0.8999999999999999
Info: NONBONDED TABLE R-SQUARED SPACING: 0.0625
Info: NONBONDED TABLE SIZE: 705 POINTS
TCL: Running for 1500000 steps
ETITLE: TS BOND ANGLE DIHED IMPRP ELECT VDW BOUNDARY MISC KINETIC TOTAL TEMP POTENTIAL TOTALAVG TEMPAVG PRESSURE GPRESSURE VOLUME PRESSAVG GPRESSAVG
ENERGY: 0 0.5919 3.2479 1.1321 0.0000 -10811.0216 1435.6195 0.0000 0.0000 1747.8896 -7622.5406 295.1604 -9370.4302 -7622.5406 295.1604 -349.2395 -274.6621 30928.0255 -349.2395 -274.6621
ENERGY: 300000 0.4958 4.8216 1.1862 0.0000 -10684.9011 1376.5406 0.0000 0.0000 1780.9984 -7520.8585 300.7514 -9301.8569 -7548.5504 301.9793 -607.5642 -582.4208 31316.9706 -410.5412 -334.6453
ENERGY: 600000 0.4056 4.7498 1.1295 0.0000 -10774.9211 1459.1297 0.0000 0.0000 1737.1008 -7572.4057 293.3386 -9309.5065 -7568.9484 301.9047 227.0347 290.8630 30683.3337 -108.8286 -36.3874
ENERGY: 900000 0.4326 2.7479 0.2421 0.0000 -10701.4607 1389.2519 0.0000 0.0000 1785.8649 -7522.9213 301.5732 -9308.7862 -7553.8148 302.4182 -307.0753 -323.5474 30723.9990 -143.6480 -81.6060
ENERGY: 1200000 1.1032 6.9942 0.2316 0.0000 -10894.0031 1510.2910 0.0000 0.0000 1806.3502 -7569.0329 305.0325 -9375.3831 -7535.0633 303.7587 177.7131 199.6485 31136.1460 -137.4605 -77.4316
ENERGY: 1500000 1.1092 2.6776 0.3572 0.0000 -10838.7753 1442.3452 0.0000 0.0000 1761.2383 -7631.0478 297.4146 -9392.2861 -7538.8749 303.3355 -161.1541 -127.4767 30772.2938 -111.6545 -59.5773
TCL: Running FEP window   3: Lambda1 0.8999999999999999 Lambda2 0.8499999999999999 [dLambda -0.050000000000000044]
TCL: Setting parameter firsttimestep to 0
TCL: Setting parameter alchLambda to 0.8999999999999999
Info: NONBONDED TABLE R-SQUARED SPACING: 0.0625
Info: NONBONDED TABLE SIZE: 705 POINTS
TCL: Setting parameter alchLambda2 to 0.8499999999999999
Info: NONBONDED TABLE R-SQUARED SPACING: 0.0625
Info: NONBONDED TABLE SIZE: 705 POINTS
TCL: Running for 1500000 steps
ETITLE: TS BOND ANGLE DIHED IMPRP ELECT VDW BOUNDARY MISC KINETIC TOTAL TEMP POTENTIAL TOTALAVG TEMPAVG PRESSURE GPRESSURE VOLUME PRESSAVG GPRESSAVG
ENERGY: 0 1.1092 2.6776 0.3572 0.0000 -10838.6599 1442.7907 0.0000 0.0000 1760.3546 -7631.3707 297.2653 -9391.7253 -7631.3707 297.2653 -204.5224 -130.0561 30772.2938 -204.5224 -130.0561
ENERGY: 300000 2.1122 4.6112 0.1584 0.0000 -10671.7452 1358.6223 0.0000 0.0000 1791.2920 -7514.9492 302.4896 -9306.2411 -7599.5644 301.8214 -998.3322 -913.8241 31186.4998 -200.3966 -122.4995
ENERGY: 600000 0.3832 3.0075 1.7284 0.0000 -10831.9585 1478.1356 0.0000 0.0000 1758.0367 -7590.6671 296.8739 -9348.7038 -7581.6225 301.2931 71.6968 166.4684 30957.4349 -102.6136 -18.9465
ENERGY: 900000 0.3132 4.8511 0.6737 0.0000 -10936.9634 1468.3029 0.0000 0.0000 1811.1987 -7651.6237 305.8512 -9462.8224 -7603.7091 300.2904 45.8348 160.0809 30117.2188 -71.6476 17.1549
ENERGY: 1200000 1.9336 2.1249 0.1805 0.0000 -10737.2225 1395.4023 0.0000 0.0000 1770.7701 -7566.8112 299.0242 -9337.5813 -7601.9997 299.6892 -250.3547 -188.2097 30266.4048 -145.1591 -56.5056
ENERGY: 1500000 0.3469 5.7984 1.0625 0.0000 -10840.0132 1402.3539 0.0000 0.0000 1795.1941 -7635.2574 303.1486 -9430.4515 -7591.8231 300.8630 -595.8715 -443.5247 30657.6473 -180.4873 -90.5392
TCL: Running FEP window   4: Lambda1 0.8499999999999999 Lambda2 0.7999999999999998 [dLambda -0.050000000000000044]
TCL: Setting parameter firsttimestep to 0
TCL: Setting parameter alchLambda to 0.8499999999999999
Info: NONBONDED TABLE R-SQUARED SPACING: 0.0625
Info: NONBONDED TABLE SIZE: 705 POINTS
TCL: Setting parameter alchLambda2 to 0.7999999999999998
Info: NONBONDED TABLE R-SQUARED SPACING: 0.0625
Info: NONBONDED TABLE SIZE: 705 POINTS
TCL: Running for 1500000 steps
ETITLE: TS BOND ANGLE DIHED IMPRP ELECT VDW BOUNDARY MISC KINETIC TOTAL TEMP POTENTIAL TOTALAVG TEMPAVG PRESSURE GPRESSURE VOLUME PRESSAVG GPRESSAVG
ENERGY: 0 0.3469 5.7984 1.0625 0.0000 -10839.6527 1402.2937 0.0000 0.0000 1794.3223 -7635.8289 303.0014 -9430.1512 -7635.8289 303.0014 -516.9582 -454.7312 30657.6473 -516.9582 -454.7312
ENERGY: 300000 2.8246 8.3954 0.2378 0.0000 -10782.9344 1443.2831 0.0000 0.0000 1770.0999 -7558.0936 298.9110 -9328.1935 -7575.9528 302.0195 172.5066 213.7004 30447.3117 -48.8298 1.0262
ENERGY: 600000 0.4740 3.7042 1.3932 0.0000 -10761.4161 1447.4241 0.0000 0.0000 1769.9185 -7538.5020 298.8804 -9308.4205 -7574.8676 301.8636 -13.5573 113.5903 30824.7745 84.2361 149.7383
ENERGY: 900000 0.4265 3.8620 0.1860 0.0000 -10856.2172 1485.5904 0.0000 0.0000 1777.7266 -7588.4256 300.1989 -9366.1522 -7573.7645 300.6455 287.6186 376.6256 30313.9979 82.2802 147.3667
ENERGY: 1200000 1.2947 5.6381 0.7401 0.0000 -10927.2694 1485.8916 0.0000 0.0000 1813.8093 -7619.8957 306.2921 -9433.7050 -7574.8044 301.7647 -62.4358 44.8035 30878.6185 8.7033 71.0806
ENERGY: 1500000 0.8399 2.7960 1.0374 0.0000 -10790.4347 1464.2399 0.0000 0.0000 1755.0413 -7566.4802 296.3681 -9321.5215 -7574.4140 300.5210 274.5981 293.9646 30359.9887 -36.8994 21.0974
TCL: Running FEP window   5: Lambda1 0.7999999999999998 Lambda2 0.7499999999999998 [dLambda -0.050000000000000044]
TCL: Setting parameter firsttimestep to 0
TCL: Setting parameter alchLambda to 0.7999999999999998
Info: NONBONDED TABLE R-SQUARED SPACING: 0.0625
Info: NONBONDED TABLE SIZE: 705 POINTS
TCL: Setting parameter alchLambda2 to 0.7499999999999998
Info: NONBONDED TABLE R-SQUARED SPACING: 0.0625
Info: NONBONDED TABLE SIZE: 705 POINTS
TCL: Running for 1500000 steps
ETITLE: TS BOND ANGLE DIHED IMPRP ELECT VDW BOUNDARY MISC KINETIC TOTAL TEMP POTENTIAL TOTALAVG TEMPAVG PRESSURE GPRESSURE VOLUME PRESSAVG GPRESSAVG
ENERGY: 0 0.8399 2.7960 1.0374 0.0000 -10790.1308 1464.3493 0.0000 0.0000 1754.1656 -7566.9426 296.2202 -9321.1082 -7566.9426 296.2202 203.1356 290.4119 30359.9887 203.1356 290.4119
ENERGY: 300000 0.7207 3.1998 1.1435 0.0000 -10684.3496 1413.7293 0.0000 0.0000 1746.4555 -7519.1009 294.9183 -9265.5564 -7573.5344 297.8977 -450.8568 -350.8342 31707.4722 5.1934 80.2864
ENERGY: 600000 0.1268 4.6948 0.9500 0.0000 -10836.6558 1472.7264 0.0000 0.0000 1743.0341 -7615.1238 294.3405 -9358.1579 -7566.7408 299.0166 -4.0043 70.8178 30815.6807 56.5527 135.8427
ENERGY: 900000 1.8945 3.5533 0.1841 0.0000 -10824.8470 1487.5831 0.0000 0.0000 1797.1418 -7534.4901 303.4775 -9331.6318 -7569.5304 298.7548 170.5164 224.2707 30735.7226 110.0772 184.7571
ENERGY: 1200000 0.3798 3.9448 0.2444 0.0000 -10908.0104 1489.8931 0.0000 0.0000 1780.7853 -7632.7630 300.7154 -9413.5483 -7569.5407 300.0766 454.5207 463.8571 30156.3527 139.2285 201.2524
ENERGY: 1500000 0.2552 3.5210 0.9561 0.0000 -10816.1530 1461.4097 0.0000 0.0000 1789.8622 -7560.1488 302.2482 -9350.0110 -7568.5883 300.1649 225.5864 285.5632 30577.4477 148.0368 207.8751
TCL: Running FEP window   6: Lambda1 0.7499999999999998 Lambda2 0.6999999999999997 [dLambda -0.050000000000000044]
TCL: Setting parameter firsttimestep to 0
TCL: Setting parameter alchLambda to 0.7499999999999998
Info: NONBONDED TABLE R-SQUARED SPACING: 0.0625
Info: NONBONDED TABLE SIZE: 705 POINTS
TCL: Setting parameter alchLambda2 to 0.6999999999999997
Info: NONBONDED TABLE R-SQUARED SPACING: 0.0625
Info: NONBONDED TABLE SIZE: 705 POINTS
TCL: Running for 1500000 steps
ETITLE: TS BOND ANGLE DIHED IMPRP ELECT VDW BOUNDARY MISC KINETIC TOTAL TEMP POTENTIAL TOTALAVG TEMPAVG PRESSURE GPRESSURE VOLUME PRESSAVG GPRESSAVG
ENERGY: 0 0.2552 3.5210 0.9561 0.0000 -10816.1086 1461.7309 0.0000 0.0000 1788.9859 -7560.6594 302.1002 -9349.6453 -7560.6594 302.1002 189.9811 283.6008 30577.4477 189.9811 283.6008
ENERGY: 300000 0.2928 4.2772 0.2179 0.0000 -10753.2762 1426.4595 0.0000 0.0000 1808.9843 -7513.0445 305.4773 -9322.0288 -7510.0723 305.8417 -72.4997 12.8649 30670.3599 5.5851 43.2551
ENERGY: 600000 0.6700 1.8475 1.1377 0.0000 -10846.0805 1491.6649 0.0000 0.0000 1750.6784 -7600.0820 295.6314 -9350.7604 -7544.2149 302.5089 388.7082 532.7736 30590.9111 25.0012 91.3768
ENERGY: 900000 2.9848 3.5289 0.8692 0.0000 -10887.8138 1488.6882 0.0000 0.0000 1777.0952 -7614.6475 300.0923 -9391.7426 -7563.9554 300.9128 198.3433 278.4885 30514.6095 14.7477 78.5336
ENERGY: 1200000 0.9642 3.1760 0.7458 0.0000 -10711.5487 1422.7309 0.0000 0.0000 1782.8160 -7501.1157 301.0583 -9283.9318 -7560.5468 302.2980 -56.6516 -36.4045 30841.1625 39.1873 90.7313
ENERGY: 1500000 0.2424 3.9319 1.0380 0.0000 -10802.2828 1387.2574 0.0000 0.0000 1758.5295 -7651.2835 296.9571 -9409.8130 -7569.7943 300.5640 -775.2520 -734.6968 30905.0822 -37.6211 19.1849
TCL: Running FEP window   7: Lambda1 0.6999999999999997 Lambda2 0.6499999999999997 [dLambda -0.050000000000000044]
TCL: Setting parameter firsttimestep to 0
TCL: Setting parameter alchLambda to 0.6999999999999997
Info: NONBONDED TABLE R-SQUARED SPACING: 0.0625
Info: NONBONDED TABLE SIZE: 705 POINTS
TCL: Setting parameter alchLambda2 to 0.6499999999999997
Info: NONBONDED TABLE R-SQUARED SPACING: 0.0625
Info: NONBONDED TABLE SIZE: 705 POINTS
TCL: Running for 1500000 steps
ETITLE: TS BOND ANGLE DIHED IMPRP ELECT VDW BOUNDARY MISC KINETIC TOTAL TEMP POTENTIAL TOTALAVG TEMPAVG PRESSURE GPRESSURE VOLUME PRESSAVG GPRESSAVG
ENERGY: 0 0.2424 3.9319 1.0380 0.0000 -10802.2851 1387.5777 0.0000 0.0000 1757.6027 -7651.8924 296.8006 -9409.4951 -7651.8924 296.8006 -823.5592 -737.8170 30905.0822 -823.5592 -737.8170
ENERGY: 300000 0.0240 5.0515 0.1506 0.0000 -10680.0151 1341.5483 0.0000 0.0000 1735.8491 -7597.3916 293.1272 -9333.2406 -7593.4413 297.8978 -713.7103 -656.5745 30401.0315 -371.4976 -303.8853
ENERGY: 600000 2.0633 5.6255 0.1959 0.0000 -10683.0011 1348.6811 0.0000 0.0000 1819.5325 -7506.9029 307.2585 -9326.4353 -7557.8170 300.5686 -510.3081 -512.0974 30444.4577 -261.0357 -195.1719
ENERGY: 900000 1.3419 4.8024 0.7499 0.0000 -10839.8265 1464.3402 0.0000 0.0000 1756.3644 -7612.2277 296.5915 -9368.5921 -7566.3284 299.3981 37.6634 55.4027 30671.7267 -94.6789 -33.2996
ENERGY: 1200000 1.9130 6.8350 1.1993 0.0000 -10749.7823 1449.0446 0.0000 0.0000 1776.1205 -7514.6700 299.9277 -9290.7905 -7555.5767 299.2238 265.2583 361.3046 30592.4061 -114.8408 -47.4636
ENERGY: 1500000 0.3473 5.3806 0.2549 0.0000 -10862.0811 1557.5558 0.0000 0.0000 1773.3740 -7525.1686 299.4639 -9298.5426 -7556.1061 299.1181 1163.7565 1208.4975 30311.3042 -86.8914 -19.1778
TCL: Running FEP window   8: Lambda1 0.6499999999999997 Lambda2 0.5999999999999996 [dLambda -0.050000000000000044]
TCL: Setting parameter firsttimestep to 0
TCL: Setting parameter alchLambda to 0.6499999999999997
Info: NONBONDED TABLE R-SQUARED SPACING: 0.0625
Info: NONBONDED TABLE SIZE: 705 POINTS
TCL: Setting parameter alchLambda2 to 0.5999999999999996
Info: NONBONDED TABLE R-SQUARED SPACING: 0.0625
Info: NONBONDED TABLE SIZE: 705 POINTS
TCL: Running for 1500000 steps
ETITLE: TS BOND ANGLE DIHED IMPRP ELECT VDW BOUNDARY MISC KINETIC TOTAL TEMP POTENTIAL TOTALAVG TEMPAVG PRESSURE GPRESSURE VOLUME PRESSAVG GPRESSAVG
ENERGY: 0 0.3473 5.3806 0.2549 0.0000 -10862.1914 1558.0172 0.0000 0.0000 1772.5068 -7525.6846 299.3174 -9298.1914 -7525.6846 299.3174 1118.9123 1205.7562 30311.3042 1118.9123 1205.7562
ENERGY: 300000 0.5172 1.9205 0.5427 0.0000 -10972.3796 1546.7727 0.0000 0.0000 1794.6193 -7628.0071 303.0515 -9422.6264 -7575.4364 301.0518 784.1892 784.0937 30369.7978 133.0745 207.6070
ENERGY: 600000 0.7754 3.9311 0.0324 0.0000 -10754.3269 1413.6241 0.0000 0.0000 1755.1437 -7580.8203 296.3854 -9335.9639 -7579.3240 300.0558 -117.8511 -45.7708 30254.8947 -89.7809 -24.9275
ENERGY: 900000 0.3011 2.4954 0.8872 0.0000 -10862.5847 1462.1879 0.0000 0.0000 1772.9063 -7623.8067 299.3849 -9396.7131 -7590.4968 298.8694 -171.2960 -47.4907 30702.7380 -38.1714 31.3570
ENERGY: 1200000 1.6592 7.8002 0.4475 0.0000 -10916.9621 1485.0066 0.0000 0.0000 1747.6862 -7674.3623 295.1261 -9422.0485 -7610.4298 297.7343 -181.4013 -144.2838 30897.4127 -116.5034 -56.5425
ENERGY: 1500000 0.7671 4.5802 0.6716 0.0000 -10867.2713 1449.3163 0.0000 0.0000 1747.0799 -7664.8563 295.0237 -9411.9361 -7606.3804 297.6611 -431.0580 -366.3840 30817.5933 -99.8836 -41.3769
TCL: Running FEP window   9: Lambda1 0.5999999999999996 Lambda2 0.5499999999999996 [dLambda -0.050000000000000044]
TCL: Setting parameter firsttimestep to 0
TCL: Setting parameter alchLambda to 0.5999999999999996
Info: NONBONDED TABLE R-SQUARED SPACING: 0.0625
Info: NONBONDED TABLE SIZE: 705 POINTS
TCL: Setting parameter alchLambda2 to 0.5499999999999996
Info: NONBONDED TABLE R-SQUARED SPACING: 0.0625
Info: NONBONDED TABLE SIZE: 705 POINTS
TCL: Running for 1500000 steps
ETITLE: TS BOND ANGLE DIHED IMPRP ELECT VDW BOUNDARY MISC KINETIC TOTAL TEMP POTENTIAL TOTALAVG TEMPAVG PRESSURE GPRESSURE VOLUME PRESSAVG GPRESSAVG
ENERGY: 0 0.7671 4.5802 0.6716 0.0000 -10867.1291 1449.4108 0.0000 0.0000 1746.1923 -7665.5071 294.8738 -9411.6994 -7665.5071 294.8738 -465.9539 -370.7916 30817.5933 -465.9539 -370.7916
ENERGY: 300000 0.5846 2.7077 0.3072 0.0000 -10762.8546 1407.7232 0.0000 0.0000 1749.0560 -7602.4757 295.3574 -9351.5318 -7606.2724 295.6177 -532.5269 -504.2760 30846.9848 -289.7337 -204.7613
ENERGY: 600000 0.2439 5.1072 0.6365 0.0000 -10867.4742 1457.2182 0.0000 0.0000 1768.0029 -7636.2655 298.5569 -9404.2684 -7603.1089 298.0199 -380.3010 -384.8770 31188.0133 -139.0553 -88.5525
ENERGY: 900000 1.3976 2.0476 0.7072 0.0000 -10794.5077 1417.4888 0.0000 0.0000 1751.5512 -7621.3153 295.7787 -9372.8665 -7607.6982 298.6237 -321.4645 -253.5792 30515.2640 -238.4020 -182.4669
ENERGY: 1200000 0.2744 4.8723 0.3733 0.0000 -10903.5658 1498.9148 0.0000 0.0000 1809.7254 -7589.4056 305.6024 -9399.1311 -7594.7349 300.2631 -73.0101 -5.2694 31253.0764 -170.1306 -118.3498
ENERGY: 1500000 0.7252 3.6088 0.4364 0.0000 -10865.5359 1485.5757 0.0000 0.0000 1809.6123 -7565.5775 305.5833 -9375.1898 -7589.5530 300.1024 378.5219 470.2769 30202.2962 -135.5514 -80.0971
TCL: Running FEP window  10: Lambda1 0.5499999999999996 Lambda2 0.4999999999999996 [dLambda -0.04999999999999999]
TCL: Setting parameter firsttimestep to 0
TCL: Setting parameter alchLambda to 0.5499999999999996
Info: NONBONDED TABLE R-SQUARED SPACING: 0.0625
Info: NONBONDED TABLE SIZE: 705 POINTS
TCL: Setting parameter alchLambda2 to 0.4999999999999996
Info: NONBONDED TABLE R-SQUARED SPACING: 0.0625
Info: NONBONDED TABLE SIZE: 705 POINTS
TCL: Running for 1500000 steps
ETITLE: TS BOND ANGLE DIHED IMPRP ELECT VDW BOUNDARY MISC KINETIC TOTAL TEMP POTENTIAL TOTALAVG TEMPAVG PRESSURE GPRESSURE VOLUME PRESSAVG GPRESSAVG
ENERGY: 0 0.7252 3.6088 0.4364 0.0000 -10865.3148 1485.7624 0.0000 0.0000 1808.7327 -7566.0494 305.4348 -9374.7821 -7566.0494 305.4348 396.4499 464.1912 30202.2962 396.4499 464.1912
ENERGY: 300000 0.4955 4.9612 0.7819 0.0000 -10866.0678 1438.2307 0.0000 0.0000 1774.6503 -7646.9482 299.6794 -9421.5985 -7587.0617 301.9857 -411.5436 -374.0200 30719.3386 106.5125 152.1790
ENERGY: 600000 4.6886 2.1097 1.5452 0.0000 -10943.8181 1557.7216 0.0000 0.0000 1814.3915 -7563.3615 306.3904 -9377.7530 -7573.2784 300.5287 595.5203 681.4250 30536.0353 113.3082 166.1353
ENERGY: 900000 0.8382 4.5144 0.0674 0.0000 -10817.5403 1439.8639 0.0000 0.0000 1728.6807 -7643.5756 291.9167 -9372.2563 -7572.5728 298.7873 -160.4538 -189.5941 30552.9855 118.5123 157.6843
ENERGY: 1200000 0.7967 6.5118 0.4929 0.0000 -10749.4320 1446.6696 0.0000 0.0000 1857.6598 -7437.3011 313.6970 -9294.9609 -7578.2043 300.3410 7.2663 93.9783 30820.6161 150.0672 196.3233
ENERGY: 1500000 0.0268 4.1899 0.4874 0.0000 -10984.5426 1567.4595 0.0000 0.0000 1746.7748 -7665.6042 294.9722 -9412.3790 -7581.7639 300.1584 767.9291 780.3306 30506.3504 183.6320 228.2949
TCL: Running FEP window  11: Lambda1 0.4999999999999996 Lambda2 0.4499999999999996 [dLambda -0.04999999999999999]
TCL: Setting parameter firsttimestep to 0
TCL: Setting parameter alchLambda to 0.4999999999999996
Info: NONBONDED TABLE R-SQUARED SPACING: 0.0625
Info: NONBONDED TABLE SIZE: 705 POINTS
TCL: Setting parameter alchLambda2 to 0.4499999999999996
Info: NONBONDED TABLE R-SQUARED SPACING: 0.0625
Info: NONBONDED TABLE SIZE: 705 POINTS
TCL: Running for 1500000 steps
ETITLE: TS BOND ANGLE DIHED IMPRP ELECT VDW BOUNDARY MISC KINETIC TOTAL TEMP POTENTIAL TOTALAVG TEMPAVG PRESSURE GPRESSURE VOLUME PRESSAVG GPRESSAVG
ENERGY: 0 0.0268 4.1899 0.4874 0.0000 -10984.5361 1567.2252 0.0000 0.0000 1745.8721 -7666.7347 294.8197 -9412.6068 -7666.7347 294.8197 690.0154 773.1886 30506.3504 690.0154 773.1886
ENERGY: 300000 1.6872 3.1582 0.1483 0.0000 -10724.7135 1448.3388 0.0000 0.0000 1816.7166 -7454.6645 306.7830 -9271.3811 -7596.8434 296.7171 50.5131 74.2330 31067.1540 66.0153 132.2221
ENERGY: 600000 1.5983 2.0959 0.1723 0.0000 -10717.1225 1385.7972 0.0000 0.0000 1708.1393 -7619.3195 288.4479 -9327.4588 -7589.5028 296.3929 -638.5880 -591.3378 30969.1588 -58.8815 9.5736
ENERGY: 900000 1.8330 4.5641 1.0745 0.0000 -10930.8923 1543.2907 0.0000 0.0000 1798.4776 -7581.6525 303.7031 -9380.1301 -7575.0511 299.1618 438.7380 502.0759 30462.8346 30.0162 102.1134
ENERGY: 1200000 1.3216 4.2266 0.5137 0.0000 -10866.7128 1438.0509 0.0000 0.0000 1760.7436 -7661.8564 297.3310 -9422.5999 -7593.3461 299.3165 -386.9294 -293.1404 30394.0745 86.1294 165.2565
ENERGY: 1500000 0.9205 3.0909 1.7993 0.0000 -10902.3149 1490.4936 0.0000 0.0000 1708.7145 -7697.2961 288.5450 -9406.0106 -7597.9525 299.0504 279.2503 303.4562 30216.1613 167.3480 240.8545
TCL: Running FEP window  12: Lambda1 0.4499999999999996 Lambda2 0.39999999999999963 [dLambda -0.04999999999999999]
TCL: Setting parameter firsttimestep to 0
TCL: Setting parameter alchLambda to 0.4499999999999996
Info: NONBONDED TABLE R-SQUARED SPACING: 0.0625
Info: NONBONDED TABLE SIZE: 705 POINTS
TCL: Setting parameter alchLambda2 to 0.39999999999999963
Info: NONBONDED TABLE R-SQUARED SPACING: 0.0625
Info: NONBONDED TABLE SIZE: 705 POINTS
TCL: Running for 1500000 steps
ETITLE: TS BOND ANGLE DIHED IMPRP ELECT VDW BOUNDARY MISC KINETIC TOTAL TEMP POTENTIAL TOTALAVG TEMPAVG PRESSURE GPRESSURE VOLUME PRESSAVG GPRESSAVG
ENERGY: 0 0.9205 3.0909 1.7993 0.0000 -10902.3153 1490.8473 0.0000 0.0000 1707.8323 -7697.8251 288.3961 -9405.6573 -7697.8251 288.3961 214.1269 304.2737 30216.1613 214.1269 304.2737
ENERGY: 300000 0.5326 4.3215 1.7185 0.0000 -10731.8121 1449.0976 0.0000 0.0000 1822.6742 -7453.4677 307.7890 -9276.1419 -7556.7713 298.7515 124.1703 156.1027 30684.1744 230.3374 270.0899
ENERGY: 600000 0.9559 3.5790 0.4019 0.0000 -10819.8390 1440.1484 0.0000 0.0000 1805.9664 -7568.7874 304.9677 -9374.7538 -7591.0157 297.8737 -23.5805 9.0245 30415.2598 187.1728 227.7458
ENERGY: 900000 1.3482 3.3510 0.0965 0.0000 -10885.9615 1433.8374 0.0000 0.0000 1795.8558 -7651.4726 303.2603 -9447.3284 -7593.1262 299.6038 -527.3580 -446.3094 30598.5570 195.2278 242.5829
ENERGY: 1200000 0.8589 3.3616 1.3089 0.0000 -10778.5971 1391.1368 0.0000 0.0000 1762.9672 -7618.9636 297.7065 -9381.9308 -7593.2236 299.3767 -510.6467 -456.6928 30436.5275 79.6222 127.8472
ENERGY: 1500000 0.5961 3.3621 1.6685 0.0000 -10887.3941 1485.6856 0.0000 0.0000 1740.2043 -7655.8775 293.8626 -9396.0818 -7585.7159 299.4746 -43.3913 -24.6008 30949.4559 70.4722 119.4378
TCL: Running FEP window  13: Lambda1 0.39999999999999963 Lambda2 0.34999999999999964 [dLambda -0.04999999999999999]
TCL: Setting parameter firsttimestep to 0
TCL: Setting parameter alchLambda to 0.39999999999999963
Info: NONBONDED TABLE R-SQUARED SPACING: 0.0625
Info: NONBONDED TABLE SIZE: 705 POINTS
TCL: Setting parameter alchLambda2 to 0.34999999999999964
Info: NONBONDED TABLE R-SQUARED SPACING: 0.0625
Info: NONBONDED TABLE SIZE: 705 POINTS
TCL: Running for 1500000 steps
ETITLE: TS BOND ANGLE DIHED IMPRP ELECT VDW BOUNDARY MISC KINETIC TOTAL TEMP POTENTIAL TOTALAVG TEMPAVG PRESSURE GPRESSURE VOLUME PRESSAVG GPRESSAVG
ENERGY: 0 0.5961 3.3621 1.6685 0.0000 -10887.3942 1485.2764 0.0000 0.0000 1739.3413 -7657.1499 293.7169 -9396.4912 -7657.1499 293.7169 -111.5016 -32.6577 30949.4559 -111.5016 -32.6577
ENERGY: 300000 0.8911 4.5210 0.7096 0.0000 -10814.2959 1450.2288 0.0000 0.0000 1771.8822 -7586.0632 299.2120 -9357.9454 -7602.6763 298.2013 -64.8746 -21.1315 30637.2984 -179.4057 -103.1581
ENERGY: 600000 1.0778 6.7511 0.7180 0.0000 -10673.9626 1404.5872 0.0000 0.0000 1758.9299 -7501.8986 297.0248 -9260.8285 -7575.0108 299.3633 -635.8896 -517.4256 31449.4434 -276.2574 -195.3252
ENERGY: 900000 0.9211 6.6520 0.3243 0.0000 -10906.9024 1521.5222 0.0000 0.0000 1772.8410 -7604.6416 299.3739 -9377.4827 -7560.7269 299.7930 507.0164 614.7676 30454.3478 -83.0209 -0.8153
ENERGY: 1200000 0.3938 2.8291 0.1372 0.0000 -10862.9666 1519.6059 0.0000 0.0000 1755.4398 -7584.5608 296.4354 -9340.0006 -7564.6789 299.4391 373.3817 474.9961 30738.4326 78.6934 152.5016
ENERGY: 1500000 0.4633 3.8515 0.6330 0.0000 -10967.0610 1587.2625 0.0000 0.0000 1764.7359 -7610.1148 298.0052 -9374.8508 -7569.0643 299.3949 987.3829 1088.5203 30365.5173 106.3572 180.2899
TCL: Running FEP window  14: Lambda1 0.34999999999999964 Lambda2 0.29999999999999966 [dLambda -0.04999999999999999]
TCL: Setting parameter firsttimestep to 0
TCL: Setting parameter alchLambda to 0.34999999999999964
Info: NONBONDED TABLE R-SQUARED SPACING: 0.0625
Info: NONBONDED TABLE SIZE: 705 POINTS
TCL: Setting parameter alchLambda2 to 0.29999999999999966
Info: NONBONDED TABLE R-SQUARED SPACING: 0.0625
Info: NONBONDED TABLE SIZE: 705 POINTS
TCL: Running for 1500000 steps
ETITLE: TS BOND ANGLE DIHED IMPRP ELECT VDW BOUNDARY MISC KINETIC TOTAL TEMP POTENTIAL TOTALAVG TEMPAVG PRESSURE GPRESSURE VOLUME PRESSAVG GPRESSAVG
ENERGY: 0 0.4633 3.8515 0.6330 0.0000 -10967.0590 1587.5024 0.0000 0.0000 1763.8608 -7610.7480 297.8574 -9374.6088 -7610.7480 297.8574 1015.2193 1085.9417 30365.5173 1015.2193 1085.9417
ENERGY: 300000 0.6231 4.6351 0.5517 0.0000 -10736.4122 1438.4741 0.0000 0.0000 1728.5839 -7563.5443 291.9003 -9292.1282 -7572.6674 297.3448 63.2275 108.8658 30424.1105 240.5088 312.6732
ENERGY: 600000 0.2172 5.6454 0.3095 0.0000 -10723.6569 1434.1665 0.0000 0.0000 1824.2910 -7459.0273 308.0621 -9283.3183 -7553.4282 300.0673 -183.1243 -104.8807 31139.4943 -123.9600 -52.5942
ENERGY: 900000 0.2112 6.2211 0.7313 0.0000 -10917.7001 1525.8302 0.0000 0.0000 1801.1501 -7583.5562 304.1543 -9384.7062 -7567.2659 299.2895 366.1380 407.2211 30670.2278 -71.7571 -6.5278
ENERGY: 1200000 0.0781 3.9181 0.2322 0.0000 -10911.3481 1505.6424 0.0000 0.0000 1765.9740 -7635.5033 298.2143 -9401.4773 -7577.0484 300.1584 188.0557 250.6396 30467.2960 -55.4129 9.6177
ENERGY: 1500000 0.5788 4.8297 0.2443 0.0000 -10925.4513 1526.3464 0.0000 0.0000 1790.1388 -7603.3133 302.2949 -9393.4520 -7575.8994 300.4265 545.0741 606.4117 30233.0278 6.5731 71.9278
TCL: Running FEP window  15: Lambda1 0.29999999999999966 Lambda2 0.24999999999999967 [dLambda -0.04999999999999999]
TCL: Setting parameter firsttimestep to 0
TCL: Setting parameter alchLambda to 0.29999999999999966
Info: NONBONDED TABLE R-SQUARED SPACING: 0.0625
Info: NONBONDED TABLE SIZE: 705 POINTS
TCL: Setting parameter alchLambda2 to 0.24999999999999967
Info: NONBONDED TABLE R-SQUARED SPACING: 0.0625
Info: NONBONDED TABLE SIZE: 705 POINTS
TCL: Running for 1500000 steps
ETITLE: TS BOND ANGLE DIHED IMPRP ELECT VDW BOUNDARY MISC KINETIC TOTAL TEMP POTENTIAL TOTALAVG TEMPAVG PRESSURE GPRESSURE VOLUME PRESSAVG GPRESSAVG
ENERGY: 0 0.5788 4.8297 0.2443 0.0000 -10925.4508 1526.4273 0.0000 0.0000 1789.2363 -7604.1344 302.1425 -9393.3707 -7604.1344 302.1425 520.2205 604.1686 30233.0278 520.2205 604.1686
ENERGY: 300000 1.0032 2.8381 1.3434 0.0000 -10934.6106 1547.6811 0.0000 0.0000 1724.6750 -7657.0697 291.2403 -9381.7447 -7598.9103 296.7192 380.8459 461.9844 30732.3990 395.1636 457.4553
ENERGY: 600000 2.1927 3.7087 0.2276 0.0000 -10847.1257 1477.9255 0.0000 0.0000 1822.4535 -7540.6177 307.7518 -9363.0712 -7577.2799 300.4434 -42.8170 42.2263 30866.1834 94.5477 150.5622
ENERGY: 900000 1.5484 6.1054 0.1838 0.0000 -10860.5934 1502.9088 0.0000 0.0000 1765.5661 -7584.2808 298.1454 -9349.8469 -7563.6513 300.4994 286.7337 442.6718 30311.4243 159.0633 228.6123
ENERGY: 1200000 0.6149 6.4912 0.1104 0.0000 -10825.8880 1446.2570 0.0000 0.0000 1785.6014 -7586.8132 301.5287 -9372.4145 -7563.6786 301.3335 65.0119 157.5299 30427.2762 144.9392 217.0748
ENERGY: 1500000 0.8746 5.3851 0.3646 0.0000 -10817.6502 1471.2213 0.0000 0.0000 1791.8623 -7547.9423 302.5859 -9339.8045 -7570.2067 301.2753 307.8721 250.2594 30546.2640 174.3647 233.1672
TCL: Running FEP window  16: Lambda1 0.24999999999999967 Lambda2 0.19999999999999968 [dLambda -0.04999999999999999]
TCL: Setting parameter firsttimestep to 0
TCL: Setting parameter alchLambda to 0.24999999999999967
Info: NONBONDED TABLE R-SQUARED SPACING: 0.0625
Info: NONBONDED TABLE SIZE: 705 POINTS
TCL: Setting parameter alchLambda2 to 0.19999999999999968
Info: NONBONDED TABLE R-SQUARED SPACING: 0.0625
Info: NONBONDED TABLE SIZE: 705 POINTS
TCL: Running for 1500000 steps
ETITLE: TS BOND ANGLE DIHED IMPRP ELECT VDW BOUNDARY MISC KINETIC TOTAL TEMP POTENTIAL TOTALAVG TEMPAVG PRESSURE GPRESSURE VOLUME PRESSAVG GPRESSAVG
ENERGY: 0 0.8746 5.3851 0.3646 0.0000 -10817.6499 1470.7444 0.0000 0.0000 1790.9649 -7549.3162 302.4344 -9340.2812 -7549.3162 302.4344 157.5877 241.9519 30546.2640 157.5877 241.9519
ENERGY: 300000 0.1900 5.4027 0.4261 0.0000 -10893.5517 1535.2382 0.0000 0.0000 1799.5351 -7552.7597 303.8816 -9352.2948 -7542.1650 302.6417 636.4629 655.1377 30391.8605 314.4272 367.5300
ENERGY: 600000 0.3711 3.8138 0.1411 0.0000 -10675.3141 1362.3175 0.0000 0.0000 1792.9058 -7515.7648 302.7622 -9308.6706 -7530.2128 302.5639 -549.9696 -434.6798 30283.0916 109.2520 172.7406
ENERGY: 900000 0.4594 3.5089 0.6960 0.0000 -10709.5836 1422.2020 0.0000 0.0000 1842.8055 -7439.9118 311.1886 -9282.7173 -7545.2611 301.8740 -286.4861 -237.8848 31162.4819 131.0923 194.3580
ENERGY: 1200000 0.5042 4.6824 0.5542 0.0000 -10939.1465 1584.4106 0.0000 0.0000 1764.8321 -7584.1629 298.0215 -9348.9950 -7553.3633 301.1221 841.2483 955.7241 30544.7408 71.2857 137.4698
ENERGY: 1500000 0.3579 6.5265 0.9519 0.0000 -10852.7030 1485.8883 0.0000 0.0000 1837.2127 -7521.7656 310.2441 -9358.9784 -7556.5748 301.2376 161.2750 164.8650 30791.9657 103.4569 160.4851
TCL: Running FEP window  17: Lambda1 0.19999999999999968 Lambda2 0.1499999999999997 [dLambda -0.04999999999999999]
TCL: Setting parameter firsttimestep to 0
TCL: Setting parameter alchLambda to 0.19999999999999968
Info: NONBONDED TABLE R-SQUARED SPACING: 0.0625
Info: NONBONDED TABLE SIZE: 705 POINTS
TCL: Setting parameter alchLambda2 to 0.1499999999999997
Info: NONBONDED TABLE R-SQUARED SPACING: 0.0625
Info: NONBONDED TABLE SIZE: 705 POINTS
TCL: Running for 1500000 steps
ETITLE: TS BOND ANGLE DIHED IMPRP ELECT VDW BOUNDARY MISC KINETIC TOTAL TEMP POTENTIAL TOTALAVG TEMPAVG PRESSURE GPRESSURE VOLUME PRESSAVG GPRESSAVG
ENERGY: 0 0.3579 6.5265 0.9519 0.0000 -10852.7025 1485.8872 0.0000 0.0000 1836.3573 -7522.6217 310.0997 -9358.9790 -7522.6217 310.0997 97.0584 161.8793 30791.9657 97.0584 161.8793
ENERGY: 300000 0.2664 7.1197 1.5282 0.0000 -10801.4193 1433.5964 0.0000 0.0000 1791.1619 -7567.7467 302.4677 -9358.9086 -7606.8594 302.9319 -189.3228 -95.5241 30457.9150 -163.2830 -98.8251
ENERGY: 600000 1.2489 9.6768 0.5101 0.0000 -10836.4733 1450.3457 0.0000 0.0000 1758.3762 -7616.3154 296.9313 -9374.6917 -7597.5089 299.9642 -295.9102 -189.2793 30795.4716 -204.1979 -132.0671
ENERGY: 900000 0.6400 5.0333 2.2054 0.0000 -10747.0550 1387.1238 0.0000 0.0000 1729.8147 -7622.2379 292.1082 -9352.0525 -7594.5126 299.5861 -554.6755 -522.8061 30760.0556 -200.0671 -130.2763
ENERGY: 1200000 0.3425 3.1241 0.0589 0.0000 -10796.2327 1504.5427 0.0000 0.0000 1764.4197 -7523.7448 297.9518 -9288.1645 -7589.4197 299.0382 561.4841 641.6721 30604.3948 -17.0855 55.1316
ENERGY: 1500000 1.3878 4.6193 0.1755 0.0000 -10654.4194 1422.6181 0.0000 0.0000 1759.7583 -7465.8604 297.1646 -9225.6187 -7577.7532 298.9621 132.3770 127.0829 30699.1011 -37.4559 27.7749
TCL: Running FEP window  18: Lambda1 0.1499999999999997 Lambda2 0.09999999999999969 [dLambda -0.05 ]
TCL: Setting parameter firsttimestep to 0
TCL: Setting parameter alchLambda to 0.1499999999999997
Info: NONBONDED TABLE R-SQUARED SPACING: 0.0625
Info: NONBONDED TABLE SIZE: 705 POINTS
TCL: Setting parameter alchLambda2 to 0.09999999999999969
Info: NONBONDED TABLE R-SQUARED SPACING: 0.0625
Info: NONBONDED TABLE SIZE: 705 POINTS
TCL: Running for 1500000 steps
ETITLE: TS BOND ANGLE DIHED IMPRP ELECT VDW BOUNDARY MISC KINETIC TOTAL TEMP POTENTIAL TOTALAVG TEMPAVG PRESSURE GPRESSURE VOLUME PRESSAVG GPRESSAVG
ENERGY: 0 1.3878 4.6193 0.1755 0.0000 -10654.4195 1422.2994 0.0000 0.0000 1758.8875 -7467.0499 297.0176 -9225.9374 -7467.0499 297.0176 37.5686 125.3179 30699.1011 37.5686 125.3179
ENERGY: 300000 0.8271 3.4119 1.7515 0.0000 -10833.5254 1460.1921 0.0000 0.0000 1746.6899 -7620.6528 294.9578 -9367.3428 -7503.5878 300.6339 -356.0592 -244.4761 30627.3605 139.5026 216.8039
ENERGY: 600000 0.4320 4.6947 0.4162 0.0000 -10599.6009 1381.7806 0.0000 0.0000 1774.0742 -7438.2033 299.5821 -9212.2775 -7517.7160 300.3885 -231.2658 -131.2962 30455.9631 128.1494 198.7357
ENERGY: 900000 1.1353 5.8299 0.8559 0.0000 -10846.8875 1398.6627 0.0000 0.0000 1779.3518 -7661.0519 300.4733 -9440.4037 -7538.9573 300.8974 -678.9457 -601.4874 30377.8053 -45.7479 36.5334
ENERGY: 1200000 1.5879 3.6947 0.5604 0.0000 -10767.5728 1424.7388 0.0000 0.0000 1785.8662 -7551.1248 301.5734 -9336.9910 -7534.7021 301.3579 -233.3716 -109.0060 30409.7505 -53.2934 31.8136
ENERGY: 1500000 0.2801 2.4708 0.4880 0.0000 -10840.5429 1465.0644 0.0000 0.0000 1711.3502 -7660.8895 288.9901 -9372.2397 -7556.1187 300.0005 15.6426 98.1408 30671.0637 -100.3401 -17.1948
TCL: Running FEP window  19: Lambda1 0.09999999999999969 Lambda2 0.049999999999999684 [dLambda -0.05 ]
TCL: Setting parameter firsttimestep to 0
TCL: Setting parameter alchLambda to 0.09999999999999969
Info: NONBONDED TABLE R-SQUARED SPACING: 0.0625
Info: NONBONDED TABLE SIZE: 705 POINTS
TCL: Setting parameter alchLambda2 to 0.049999999999999684
Info: NONBONDED TABLE R-SQUARED SPACING: 0.0625
Info: NONBONDED TABLE SIZE: 705 POINTS
TCL: Running for 1500000 steps
ETITLE: TS BOND ANGLE DIHED IMPRP ELECT VDW BOUNDARY MISC KINETIC TOTAL TEMP POTENTIAL TOTALAVG TEMPAVG PRESSURE GPRESSURE VOLUME PRESSAVG GPRESSAVG
ENERGY: 0 0.2801 2.4708 0.4880 0.0000 -10840.5434 1465.2857 0.0000 0.0000 1710.4898 -7661.5290 288.8448 -9372.0188 -7661.5290 288.8448 7.8617 95.1282 30671.0637 7.8617 95.1282
ENERGY: 300000 2.3364 3.9856 0.1429 0.0000 -10887.6292 1456.5350 0.0000 0.0000 1762.3166 -7662.3127 297.5967 -9424.6293 -7632.9000 293.6325 -252.0665 -156.5295 30348.3621 -101.9919 -20.7620
ENERGY: 600000 0.0333 5.1335 1.5129 0.0000 -10670.3928 1359.0925 0.0000 0.0000 1782.7565 -7521.8641 301.0483 -9304.6206 -7588.6930 295.8328 -790.5938 -764.4927 30725.4652 -3.2765 66.3421
ENERGY: 900000 0.4166 3.3958 0.1742 0.0000 -10891.0497 1474.7846 0.0000 0.0000 1755.2519 -7657.0266 296.4037 -9412.2785 -7598.2351 296.6063 -64.3728 16.4920 30377.5644 6.3351 76.3679
ENERGY: 1200000 1.0294 2.9472 0.9316 0.0000 -10807.7095 1517.8718 0.0000 0.0000 1778.3827 -7506.5469 300.3097 -9284.9296 -7596.6651 297.0259 717.6284 906.3573 30116.1317 100.6181 183.1573
ENERGY: 1500000 1.6296 4.9183 0.7159 0.0000 -10820.3940 1482.3255 0.0000 0.0000 1814.8432 -7515.9614 306.4667 -9330.8046 -7584.2662 298.2045 140.1355 224.4116 30718.5900 65.8461 147.6998
TCL: Running FEP window  20: Lambda1 0.049999999999999684 Lambda2 0.0    [dLambda -0.049999999999999684]
TCL: Setting parameter firsttimestep to 0
TCL: Setting parameter alchLambda to 0.049999999999999684
Info: NONBONDED TABLE R-SQUARED SPACING: 0.0625
Info: NONBONDED TABLE SIZE: 705 POINTS
TCL: Setting parameter alchLambda2 to 0.0
Info: NONBONDED TABLE R-SQUARED SPACING: 0.0625
Info: NONBONDED TABLE SIZE: 705 POINTS
TCL: Running for 1500000 steps
ETITLE: TS BOND ANGLE DIHED IMPRP ELECT VDW BOUNDARY MISC KINETIC TOTAL TEMP POTENTIAL TOTALAVG TEMPAVG PRESSURE GPRESSURE VOLUME PRESSAVG GPRESSAVG
ENERGY: 0 1.6296 4.9183 0.7159 0.0000 -10820.3937 1481.2358 0.0000 0.0000 1813.9728 -7517.9213 306.3197 -9331.8941 -7517.9213 306.3197 125.6338 219.3589 30718.5900 125.6338 219.3589
ENERGY: 300000 1.0577 5.8713 0.3507 0.0000 -10857.8178 1598.6466 0.0000 0.0000 1772.7155 -7479.1760 299.3527 -9251.8915 -7547.7161 299.2589 1348.1323 1389.1896 30441.0392 130.3565 228.4859
ENERGY: 600000 0.1045 7.6965 0.4983 0.0000 -10623.6390 1321.8920 0.0000 0.0000 1773.3445 -7520.1033 299.4589 -9293.4478 -7553.0779 300.4600 -1203.7586 -1087.5529 30977.6770 -164.9171 -74.4947
ENERGY: 900000 1.2504 5.6774 0.2695 0.0000 -10739.1246 1384.9526 0.0000 0.0000 1794.2531 -7552.7216 302.9897 -9346.9747 -7554.1909 301.6204 -317.2633 -318.6639 30210.5145 -74.0079 10.8091
ENERGY: 1200000 0.5508 4.1679 0.2188 0.0000 -10772.3048 1445.0365 0.0000 0.0000 1747.8151 -7574.5158 295.1478 -9322.3309 -7563.0172 300.9340 95.8028 181.9853 30218.7282 -61.4880 18.9764
ENERGY: 1500000 0.3523 6.0681 0.2141 0.0000 -10725.2188 1383.4894 0.0000 0.0000 1754.4119 -7580.6830 296.2618 -9335.0949 -7570.5960 300.4958 -516.0410 -459.1259 30753.9226 -109.8460 -32.9283
TCL: Exiting due to exit command.
