Info: SIMULATION PARAMETERS:
Info: TIMESTEP               2
Info: NUMBER OF STEPS        0
Info: STEPS PER CYCLE        10
Info: PERIODIC CELL BASIS 1  30.9554 0 0
Info: PERIODIC CELL BASIS 2  0 31.31 0
Info: PERIODIC CELL BASIS 3  0 0 31.5858
Info: PERIODIC CELL CENTER   0 0 0
Info: WRAPPING WATERS AROUND PERIODIC BOUNDARIES ON OUTPUT.
Info: WRAPPING ALL CLUSTERS AROUND PERIODIC BOUNDARIES ON OUTPUT.
Info: FIRST LDB TIMESTEP     50
Info: LAST LDB TIMESTEP     -1
Info: HOM BACKGROUND SCALING 1
Info: PME BACKGROUND SCALING 1
Info: MIN ATOMS PER PATCH    40
Info: EMPTY PATCH LOAD       40 ATOMS
Info: VELOCITY FILE          mobley_1708457_equil.vel
Info: CENTER OF MASS MOVING INITIALLY? NO
Info: DIELECTRIC             1
Info: EXCLUDE                SCALED ONE-FOUR
Info: 1-4 ELECTROSTATICS SCALED BY 0.833333
Info: MODIFIED 1-4 VDW PARAMETERS WILL BE USED
Info: DCD FILENAME           mobley_1708457_prod.dcd
Info: DCD FREQUENCY          100000
Info: DCD FIRST STEP         100000
Info: DCD FILE WILL CONTAIN UNIT CELL DATA
Info: XST FILENAME           mobley_1708457_prod.xst
Info: XST FREQUENCY          100000
Info: NO VELOCITY DCD OUTPUT
Info: NO FORCE DCD OUTPUT
Info: OUTPUT FILENAME        mobley_1708457_prod
Info: BINARY OUTPUT FILES WILL BE USED
Info: RESTART FILENAME       mobley_1708457_prod.restart
Info: RESTART FREQUENCY      100000
Info: BINARY RESTART FILES WILL BE USED
Info: CUTOFF                 9
Info: PAIRLIST DISTANCE      11
Info: PAIRLIST SHRINK RATE   0.01
Info: PAIRLIST GROW RATE     0.01
Info: PAIRLIST TRIGGER       0.3
Info: PAIRLISTS PER CYCLE    2
Info: PAIRLISTS ENABLED
Info: MARGIN                 2
Info: HYDROGEN GROUP CUTOFF  2.5
Info: PATCH DIMENSION        15.5
Info: ENERGY OUTPUT STEPS    100000
Info: ENERGY EVALUATION STEPS    100000
Info: OUTPUT ENERGY PRECISION 4
Info: CROSSTERM ENERGY INCLUDED IN DIHEDRAL
Info: TIMING OUTPUT STEPS    1000000
Info: PRESSURE OUTPUT STEPS  100000
Info: ALCHEMICAL FEP ON
Info: FEP CURRENT LAMBDA VALUE     0
Info: FEP COMPARISON LAMBDA VALUE  0.05
Info: FEP INTRA-ALCHEMICAL NON-BONDED INTERACTIONS WILL BE RETAINED
Info: FEP INTRA-ALCHEMICAL BONDED INTERACTIONS WILL BE RETAINED
Info: FEP VDW SHIFTING COEFFICIENT 5
Info: FEP ELEC. ACTIVE FOR ANNIHILATED PARTICLES BETWEEN LAMBDA = 0 AND LAMBDA = 0.5
Info: FEP ELEC. ACTIVE FOR EXNIHILATED PARTICLES BETWEEN LAMBDA = 0.5 AND LAMBDA = 1
Info: FEP VDW ACTIVE FOR ANNIHILATED PARTICLES BETWEEN LAMBDA = 0 AND LAMBDA = 1
Info: FEP VDW ACTIVE FOR EXNIHILATED PARTICLES BETWEEN LAMBDA = 0 AND LAMBDA = 1
Info: FEP BOND ACTIVE FOR ANNIHILATED PARTICLES BETWEEN LAMBDA = 1 AND LAMBDA = 1
Info: FEP BOND ACTIVE FOR EXNIHILATED PARTICLES BETWEEN LAMBDA = 0 AND LAMBDA = 0
Info: LANGEVIN DYNAMICS ACTIVE
Info: LANGEVIN TEMPERATURE   300
Info: LANGEVIN USING BBK INTEGRATOR
Info: LANGEVIN DAMPING COEFFICIENT IS 1 INVERSE PS
Info: LANGEVIN DYNAMICS APPLIED TO HYDROGENS
Info: LANGEVIN PISTON PRESSURE CONTROL ACTIVE
Info:        TARGET PRESSURE IS 1.01325 BAR
Info:     OSCILLATION PERIOD IS 50 FS
Info:             DECAY TIME IS 25 FS
Info:     PISTON TEMPERATURE IS 300 K
Info:       PRESSURE CONTROL IS GROUP-BASED
Info:    INITIAL STRAIN RATE IS -0.000109535 -0.000109535 -0.000109535
Info:       CELL FLUCTUATION IS ISOTROPIC
Info: PARTICLE MESH EWALD (PME) ACTIVE
Info: PME TOLERANCE               1e-06
Info: PME EWALD COEFFICIENT       0.348832
Info: PME INTERPOLATION ORDER     4
Info: PME GRID DIMENSIONS         32 32 32
Info: PME MAXIMUM GRID SPACING    1
Info: PME CALCULATION WILL BE PERFORMED ON GPU
Info: FULL ELECTROSTATIC EVALUATION FREQUENCY      2
Info: USING VERLET I (r-RESPA) MTS SCHEME.
Info: C1 SPLITTING OF LONG RANGE ELECTROSTATICS
Info: PLACING ATOMS IN PATCHES BY HYDROGEN GROUPS
Info: RIGID BONDS TO HYDROGEN : ALL
Info:         ERROR TOLERANCE : 1e-08
Info:          MAX ITERATIONS : 100
Info: RIGID WATER USING SETTLE ALGORITHM
Info: RANDOM NUMBER SEED     1742542330
Info: USE HYDROGEN BONDS?    NO
Info: Using AMBER format force field!
Info: AMBER PARM FILE        mobley_1708457.prmtop
Info: COORDINATE PDB         mobley_1708457.pdb
Info: Exclusions will be read from PARM file!
Info: SCNB (VDW SCALING)     2
Info: USING ARITHMETIC MEAN TO COMBINE L-J SIGMA PARAMETERS
Info: BINARY COORDINATES     mobley_1708457_equil.coor
Info: SUMMARY OF PARAMETERS:
Info: 5 BONDS
Info: 5 ANGLES
Info:   5 HARMONIC
Info:   0 COSINE-BASED
Info: 2 DIHEDRAL
Info: 0 IMPROPER
Info: 0 CROSSTERM
Info: 0 VDW
Info: 21 VDW_PAIRS
Info: 0 NBTHOLE_PAIRS
Info: To read alchdata from file: mobley_1708457.pdb
Info: To read alchflag data from column: 5
Info: STRUCTURE SUMMARY:
Info: 2987 ATOMS
Info: 2986 BONDS
Info: 18 ANGLES
Info: 18 DIHEDRALS
Info: 0 IMPROPERS
Info: 0 CROSSTERMS
Info: 3022 EXCLUSIONS
Info: 2982 RIGID BONDS
Info: ALCH: 0 ATOMS TO DISAPPEAR IN FINAL STATE
Info: ALCH: 11 ATOMS TO APPEAR IN FINAL STATE
Info: 5979 DEGREES OF FREEDOM
Info: 997 HYDROGEN GROUPS
Info: 4 ATOMS IN LARGEST HYDROGEN GROUP
Info: 997 MIGRATION GROUPS
Info: 4 ATOMS IN LARGEST MIGRATION GROUP
Info: TOTAL MASS = 17966 amu
Info: TOTAL CHARGE = -0.000100002 e
Info: MASS DENSITY = 0.974539 g/cm^3
Info: ATOM DENSITY = 0.0975717 atoms/A^3
Info: ADDED 0 IMPLICIT EXCLUSIONS
Info: NONBONDED TABLE R-SQUARED SPACING: 0.0625
Info: NONBONDED TABLE SIZE: 705 POINTS
Info: REMOVING COM VELOCITY -0.00602476 -0.222547 -0.183232
Info: Use 3D box decompostion in PME FFT.
Info: Updated CUDA force table with 4096 elements.
Info: Updated CUDA LJ table with 6 x 6 elements.
Info: Found 14 unique exclusion lists needing 24 bytes
TCL: Running for 1500000 steps
ETITLE: TS BOND ANGLE DIHED IMPRP ELECT VDW BOUNDARY MISC KINETIC TOTAL TEMP POTENTIAL TOTALAVG TEMPAVG PRESSURE GPRESSURE VOLUME PRESSAVG GPRESSAVG
ENERGY: 0 3.1228 4.0398 0.4075 0.0000 -10881.8893 1471.5749 0.0000 0.0000 1791.0678 -7611.6765 301.4907 -9402.7443 -7611.6765 301.4907 438.7792 526.1172 30613.3874 438.7792 526.1172
ENERGY: 300000 3.9875 6.4256 0.6294 0.0000 -11090.8493 1549.5435 0.0000 0.0000 1782.7416 -7747.5218 300.0891 -9530.2634 -7688.1839 301.0889 394.9189 474.2822 30629.6548 362.7754 443.8569
ENERGY: 600000 1.4168 6.4984 0.4924 0.0000 -10855.8288 1369.6346 0.0000 0.0000 1763.5320 -7714.2545 296.8556 -9477.7866 -7667.7420 302.3952 -716.9300 -645.7743 30701.3547 -19.8567 46.3642
ENERGY: 900000 4.4790 4.6636 1.5530 0.0000 -10999.2686 1517.5549 0.0000 0.0000 1745.3434 -7725.6747 293.7939 -9471.0181 -7665.5048 301.1098 431.3576 437.8327 30779.8595 14.7643 76.5805
ENERGY: 1200000 1.4438 3.2081 0.4605 0.0000 -10839.7774 1427.4321 0.0000 0.0000 1850.2421 -7556.9908 311.4515 -9407.2328 -7662.4110 301.6200 -152.2935 -96.4637 30880.0404 20.1033 76.0284
ENERGY: 1500000 0.2802 5.9331 0.1856 0.0000 -11021.8967 1493.2605 0.0000 0.0000 1832.2754 -7689.9618 308.4271 -9522.2372 -7667.5981 301.5551 254.8468 279.2393 30438.0723 38.4932 93.4838
TCL: Running FEP window   2: Lambda1 0.05   Lambda2 0.1    [dLambda 0.05  ]
TCL: Setting parameter firsttimestep to 0
TCL: Setting parameter alchLambda to 0.05
Info: NONBONDED TABLE R-SQUARED SPACING: 0.0625
Info: NONBONDED TABLE SIZE: 705 POINTS
TCL: Setting parameter alchLambda2 to 0.1
Info: NONBONDED TABLE R-SQUARED SPACING: 0.0625
Info: NONBONDED TABLE SIZE: 705 POINTS
TCL: Running for 1500000 steps
ETITLE: TS BOND ANGLE DIHED IMPRP ELECT VDW BOUNDARY MISC KINETIC TOTAL TEMP POTENTIAL TOTALAVG TEMPAVG PRESSURE GPRESSURE VOLUME PRESSAVG GPRESSAVG
ENERGY: 0 0.2802 5.9331 0.1856 0.0000 -11021.8978 1495.4903 0.0000 0.0000 1831.3701 -7688.6385 308.2747 -9520.0086 -7688.6385 308.2747 223.1337 286.3189 30438.0723 223.1337 286.3189
ENERGY: 300000 0.8030 5.0788 0.3019 0.0000 -10857.9167 1439.7029 0.0000 0.0000 1774.6815 -7637.3485 298.7323 -9412.0300 -7645.1540 301.2199 -28.3528 -9.1520 30673.1539 -98.4951 -47.8517
ENERGY: 600000 0.9896 4.0686 0.4218 0.0000 -10910.6867 1492.7569 0.0000 0.0000 1808.7797 -7603.6700 304.4721 -9412.4497 -7655.2344 300.0100 354.6056 357.8486 30871.3246 48.6284 102.5580
ENERGY: 900000 4.7718 3.5728 0.6062 0.0000 -10881.9584 1480.7018 0.0000 0.0000 1800.7512 -7591.5546 303.1207 -9392.3057 -7641.1479 301.5354 125.6791 207.3770 31158.3354 22.2776 79.5116
ENERGY: 1200000 1.4721 6.9560 0.1482 0.0000 -10990.9565 1515.8132 0.0000 0.0000 1831.1522 -7635.4148 308.2381 -9466.5670 -7652.3251 301.2225 525.5935 500.6644 30497.3448 157.2046 209.9963
ENERGY: 1500000 1.6743 3.3557 0.8422 0.0000 -10855.7273 1382.7731 0.0000 0.0000 1732.6778 -7734.4041 291.6619 -9467.0819 -7656.1308 300.2972 -749.4833 -669.2407 30686.2915 84.9738 136.9546
TCL: Running FEP window   3: Lambda1 0.1    Lambda2 0.15000000000000002 [dLambda 0.05000000000000002]
TCL: Setting parameter firsttimestep to 0
TCL: Setting parameter alchLambda to 0.1
Info: NONBONDED TABLE R-SQUARED SPACING: 0.0625
Info: NONBONDED TABLE SIZE: 705 POINTS
TCL: Setting parameter alchLambda2 to 0.15000000000000002
Info: NONBONDED TABLE R-SQUARED SPACING: 0.0625
Info: NONBONDED TABLE SIZE: 705 POINTS
TCL: Running for 1500000 steps
ETITLE: TS BOND ANGLE DIHED IMPRP ELECT VDW BOUNDARY MISC KINETIC TOTAL TEMP POTENTIAL TOTALAVG TEMPAVG PRESSURE GPRESSURE VOLUME PRESSAVG GPRESSAVG
ENERGY: 0 1.6743 3.3557 0.8422 0.0000 -10855.7264 1384.3612 0.0000 0.0000 1731.8172 -7733.6758 291.5170 -9465.4930 -7733.6758 291.5170 -746.7018 -665.8798 30686.2915 -746.7018 -665.8798
ENERGY: 300000 2.0294 4.1664 0.8489 0.0000 -11072.1869 1515.9218 0.0000 0.0000 1753.8203 -7795.4002 295.2208 -9549.2205 -7758.4858 293.3353 285.2822 349.4255 30337.3095 260.9787 324.1454
ENERGY: 600000 0.0982 4.1823 1.4777 0.0000 -10830.5557 1410.1419 0.0000 0.0000 1853.9846 -7560.6711 312.0815 -9414.6557 -7721.5051 296.2083 -111.9562 -74.1213 30361.3892 201.3311 259.4751
ENERGY: 900000 1.4981 6.7371 1.3981 0.0000 -10954.2235 1460.2445 0.0000 0.0000 1765.0649 -7719.2808 297.1136 -9484.3457 -7720.6019 296.5399 -87.9826 3.4457 30518.3405 111.1808 177.0021
ENERGY: 1200000 0.3991 8.5479 0.4796 0.0000 -10923.3620 1450.4521 0.0000 0.0000 1754.4272 -7709.0561 295.3229 -9463.4833 -7714.0704 297.3473 -498.0920 -362.3226 30877.3416 -11.1931 65.4375
ENERGY: 1500000 1.5828 6.4983 0.0895 0.0000 -10835.7541 1417.4842 0.0000 0.0000 1787.6517 -7622.4477 300.9156 -9410.0994 -7707.4658 297.8039 -181.4801 -159.7607 30920.8104 -55.0893 16.4775
TCL: Running FEP window   4: Lambda1 0.15000000000000002 Lambda2 0.2    [dLambda 0.04999999999999999]
TCL: Setting parameter firsttimestep to 0
TCL: Setting parameter alchLambda to 0.15000000000000002
Info: NONBONDED TABLE R-SQUARED SPACING: 0.0625
Info: NONBONDED TABLE SIZE: 705 POINTS
TCL: Setting parameter alchLambda2 to 0.2
Info: NONBONDED TABLE R-SQUARED SPACING: 0.0625
Info: NONBONDED TABLE SIZE: 705 POINTS
TCL: Running for 1500000 steps
ETITLE: TS BOND ANGLE DIHED IMPRP ELECT VDW BOUNDARY MISC KINETIC TOTAL TEMP POTENTIAL TOTALAVG TEMPAVG PRESSURE GPRESSURE VOLUME PRESSAVG GPRESSAVG
ENERGY: 0 1.5828 6.4983 0.0895 0.0000 -10835.7527 1417.3367 0.0000 0.0000 1786.7808 -7623.4646 300.7690 -9410.2454 -7623.4646 300.7690 -227.4559 -156.7140 30920.8104 -227.4559 -156.7140
ENERGY: 300000 2.4767 3.3539 0.2496 0.0000 -10878.7652 1443.1762 0.0000 0.0000 1742.5241 -7686.9846 293.3193 -9429.5088 -7687.7090 296.6769 -6.6809 69.1923 30780.8304 -81.9406 -32.0526
ENERGY: 600000 1.7101 5.5625 1.1751 0.0000 -10852.3516 1470.9726 0.0000 0.0000 1829.2921 -7543.6393 307.9250 -9372.9314 -7666.7053 298.8065 311.8029 351.4658 30893.5675 -166.0228 -130.2196
ENERGY: 900000 1.6188 5.7073 0.3310 0.0000 -10909.4113 1436.8543 0.0000 0.0000 1816.8563 -7648.0436 305.8316 -9464.8999 -7667.5514 300.7991 -179.9911 -96.8412 30616.5644 -171.5997 -127.8618
ENERGY: 1200000 3.4443 8.4013 0.5563 0.0000 -10845.5324 1389.9239 0.0000 0.0000 1775.9869 -7667.2197 298.9521 -9443.2066 -7667.9768 300.8028 -584.6733 -547.6361 30716.0615 -188.3223 -141.8398
ENERGY: 1500000 1.1532 6.5898 1.1151 0.0000 -10793.6523 1411.9127 0.0000 0.0000 1798.0802 -7574.8014 302.6710 -9372.8816 -7668.7522 300.8000 -144.8037 -105.8258 30803.5386 -210.3885 -164.4054
TCL: Running FEP window   5: Lambda1 0.2    Lambda2 0.25   [dLambda 0.04999999999999999]
TCL: Setting parameter firsttimestep to 0
TCL: Setting parameter alchLambda to 0.2
Info: NONBONDED TABLE R-SQUARED SPACING: 0.0625
Info: NONBONDED TABLE SIZE: 705 POINTS
TCL: Setting parameter alchLambda2 to 0.25
Info: NONBONDED TABLE R-SQUARED SPACING: 0.0625
Info: NONBONDED TABLE SIZE: 705 POINTS
TCL: Running for 1500000 steps
ETITLE: TS BOND ANGLE DIHED IMPRP ELECT VDW BOUNDARY MISC KINETIC TOTAL TEMP POTENTIAL TOTALAVG TEMPAVG PRESSURE GPRESSURE VOLUME PRESSAVG GPRESSAVG
ENERGY: 0 1.1532 6.5898 1.1151 0.0000 -10793.6533 1412.3025 0.0000 0.0000 1797.2168 -7575.2760 302.5257 -9372.4928 -7575.2760 302.5257 -176.9158 -100.9842 30803.5386 -176.9158 -100.9842
ENERGY: 300000 5.2588 3.6817 0.9151 0.0000 -10930.3867 1445.9641 0.0000 0.0000 1772.7246 -7701.8423 298.4029 -9474.5669 -7667.0288 300.6039 -156.8676 -128.7651 30663.3131 -90.0469 -35.1835
ENERGY: 600000 4.4843 4.5786 0.8609 0.0000 -11061.4385 1531.4919 0.0000 0.0000 1777.2740 -7742.7489 299.1687 -9520.0229 -7682.0509 299.6155 532.2792 695.3898 30300.0053 -227.6035 -156.9004
ENERGY: 900000 2.8025 4.7248 1.4615 0.0000 -10709.4813 1316.7210 0.0000 0.0000 1800.1594 -7583.6120 303.0210 -9383.7714 -7663.3250 300.4134 -722.7469 -636.0070 30527.9313 -208.0050 -132.9900
ENERGY: 1200000 2.3629 5.7805 0.3861 0.0000 -10865.1771 1384.5786 0.0000 0.0000 1796.2108 -7675.8582 302.3564 -9472.0690 -7667.6011 300.1184 -465.7922 -446.1012 30462.6570 -221.8498 -157.9366
ENERGY: 1500000 3.1137 4.1528 0.7188 0.0000 -10942.3340 1447.1952 0.0000 0.0000 1742.9485 -7744.2050 293.3907 -9487.1535 -7689.8540 298.6297 134.3375 150.7984 30247.6568 -173.5681 -108.4004
TCL: Running FEP window   6: Lambda1 0.25   Lambda2 0.3    [dLambda 0.04999999999999999]
TCL: Setting parameter firsttimestep to 0
TCL: Setting parameter alchLambda to 0.25
Info: NONBONDED TABLE R-SQUARED SPACING: 0.0625
Info: NONBONDED TABLE SIZE: 705 POINTS
TCL: Setting parameter alchLambda2 to 0.3
Info: NONBONDED TABLE R-SQUARED SPACING: 0.0625
Info: NONBONDED TABLE SIZE: 705 POINTS
TCL: Running for 1500000 steps
ETITLE: TS BOND ANGLE DIHED IMPRP ELECT VDW BOUNDARY MISC KINETIC TOTAL TEMP POTENTIAL TOTALAVG TEMPAVG PRESSURE GPRESSURE VOLUME PRESSAVG GPRESSAVG
ENERGY: 0 3.1137 4.1528 0.7188 0.0000 -10942.3346 1446.9133 0.0000 0.0000 1742.0614 -7745.3746 293.2414 -9487.4360 -7745.3746 293.2414 70.2111 152.2295 30247.6568 70.2111 152.2295
ENERGY: 300000 0.8431 5.5697 0.3584 0.0000 -10873.8330 1402.5295 0.0000 0.0000 1699.2665 -7765.2657 286.0377 -9464.5322 -7711.7245 296.7523 -609.9549 -500.7248 30837.6145 -93.6983 -26.7857
ENERGY: 600000 3.0643 2.5799 0.1142 0.0000 -10858.7106 1431.2033 0.0000 0.0000 1791.3062 -7630.4428 301.5308 -9421.7490 -7677.7042 298.3983 -73.2147 -31.2133 30876.3120 -10.6797 46.6196
ENERGY: 900000 3.4095 3.4577 0.6980 0.0000 -10852.8060 1455.6479 0.0000 0.0000 1754.4266 -7635.1662 295.3228 -9389.5928 -7671.5066 298.9412 319.6590 397.4969 30494.3839 -29.1294 34.4568
ENERGY: 1200000 0.1432 7.0021 0.4870 0.0000 -10984.3632 1483.0283 0.0000 0.0000 1763.7777 -7729.9249 296.8969 -9493.7026 -7681.7934 298.7624 112.5342 177.8291 30532.8405 100.5834 167.0875
ENERGY: 1500000 2.4069 6.3342 2.0631 0.0000 -11061.2269 1489.6820 0.0000 0.0000 1782.5004 -7778.2402 300.0485 -9560.7407 -7683.2627 298.6169 4.2107 0.0924 30664.7913 80.4391 146.6546
TCL: Running FEP window   7: Lambda1 0.3    Lambda2 0.35   [dLambda 0.04999999999999999]
TCL: Setting parameter firsttimestep to 0
TCL: Setting parameter alchLambda to 0.3
Info: NONBONDED TABLE R-SQUARED SPACING: 0.0625
Info: NONBONDED TABLE SIZE: 705 POINTS
TCL: Setting parameter alchLambda2 to 0.35
Info: NONBONDED TABLE R-SQUARED SPACING: 0.0625
Info: NONBONDED TABLE SIZE: 705 POINTS
TCL: Running for 1500000 steps
ETITLE: TS BOND ANGLE DIHED IMPRP ELECT VDW BOUNDARY MISC KINETIC TOTAL TEMP POTENTIAL TOTALAVG TEMPAVG PRESSURE GPRESSURE VOLUME PRESSAVG GPRESSAVG
ENERGY: 0 2.4069 6.3342 2.0631 0.0000 -11061.2279 1489.9189 0.0000 0.0000 1781.5907 -7778.9141 299.8954 -9560.5048 -7778.9141 299.8954 -62.4604 5.5023 30664.7913 -62.4604 5.5023
ENERGY: 300000 3.2411 4.9653 0.2497 0.0000 -10966.7313 1479.6507 0.0000 0.0000 1765.0320 -7713.5924 297.1081 -9478.6245 -7706.0234 299.2021 291.1665 330.4166 30462.5448 -145.6617 -105.4136
ENERGY: 600000 1.8077 5.5035 0.2433 0.0000 -11122.7654 1577.5079 0.0000 0.0000 1740.0149 -7797.6881 292.8969 -9537.7030 -7710.0675 299.6168 573.9203 629.1663 30589.2100 -123.2598 -77.7107
ENERGY: 900000 2.0677 3.9143 0.1615 0.0000 -10995.8082 1463.3229 0.0000 0.0000 1740.8592 -7785.4825 293.0390 -9526.3417 -7723.9359 298.6291 -113.8047 -97.0603 30719.3484 17.2169 65.0580
ENERGY: 1200000 0.8455 5.3626 1.9968 0.0000 -10968.1873 1479.7796 0.0000 0.0000 1821.5034 -7658.6993 306.6139 -9480.2027 -7713.0401 299.1055 -24.0481 72.6446 30719.9635 37.9848 95.6099
ENERGY: 1500000 1.6627 3.6323 0.2297 0.0000 -10971.2762 1530.2717 0.0000 0.0000 1735.5193 -7699.9606 292.1402 -9435.4798 -7700.4569 298.7585 174.5879 219.6200 31407.0804 3.2597 63.0812
TCL: Running FEP window   8: Lambda1 0.35   Lambda2 0.39999999999999997 [dLambda 0.04999999999999999]
TCL: Setting parameter firsttimestep to 0
TCL: Setting parameter alchLambda to 0.35
Info: NONBONDED TABLE R-SQUARED SPACING: 0.0625
Info: NONBONDED TABLE SIZE: 705 POINTS
TCL: Setting parameter alchLambda2 to 0.39999999999999997
Info: NONBONDED TABLE R-SQUARED SPACING: 0.0625
Info: NONBONDED TABLE SIZE: 705 POINTS
TCL: Running for 1500000 steps
ETITLE: TS BOND ANGLE DIHED IMPRP ELECT VDW BOUNDARY MISC KINETIC TOTAL TEMP POTENTIAL TOTALAVG TEMPAVG PRESSURE GPRESSURE VOLUME PRESSAVG GPRESSAVG
ENERGY: 0 1.6627 3.6323 0.2297 0.0000 -10971.2754 1530.5526 0.0000 0.0000 1734.5889 -7700.6093 291.9836 -9435.1981 -7700.6093 291.9836 135.8283 225.5259 31407.0804 135.8283 225.5259
ENERGY: 300000 1.4483 4.9175 0.2206 0.0000 -10971.5024 1525.0640 0.0000 0.0000 1765.6127 -7674.2393 297.2058 -9439.8520 -7667.1836 299.3705 252.6362 334.6161 31415.7916 -43.3682 17.5203
ENERGY: 600000 2.3012 6.3459 0.5641 0.0000 -10841.5526 1404.6208 0.0000 0.0000 1841.7290 -7585.9916 310.0185 -9427.7206 -7656.2351 300.8813 -172.3552 -128.3393 30623.6587 -31.2132 25.1956
ENERGY: 900000 0.7830 4.7495 0.1606 0.0000 -11056.6220 1545.3638 0.0000 0.0000 1873.5977 -7631.9673 315.3829 -9505.5651 -7673.9017 300.8603 957.0419 1052.4765 30072.5725 33.2084 105.9440
ENERGY: 1200000 1.8138 6.0413 1.5652 0.0000 -11008.8071 1504.5678 0.0000 0.0000 1745.5709 -7749.2481 293.8322 -9494.8191 -7681.8073 300.7071 -12.8042 86.4401 30621.3020 -6.1319 64.9034
ENERGY: 1500000 3.2754 2.6431 0.8305 0.0000 -10835.6801 1402.6875 0.0000 0.0000 1793.7329 -7632.5107 301.9393 -9426.2436 -7676.2651 301.2379 -179.9256 -125.4084 30787.7421 -16.6728 57.1373
TCL: Running FEP window   9: Lambda1 0.39999999999999997 Lambda2 0.44999999999999996 [dLambda 0.04999999999999999]
TCL: Setting parameter firsttimestep to 0
TCL: Setting parameter alchLambda to 0.39999999999999997
Info: NONBONDED TABLE R-SQUARED SPACING: 0.0625
Info: NONBONDED TABLE SIZE: 705 POINTS
TCL: Setting parameter alchLambda2 to 0.44999999999999996
Info: NONBONDED TABLE R-SQUARED SPACING: 0.0625
Info: NONBONDED TABLE SIZE: 705 POINTS
TCL: Running for 1500000 steps
ETITLE: TS BOND ANGLE DIHED IMPRP ELECT VDW BOUNDARY MISC KINETIC TOTAL TEMP POTENTIAL TOTALAVG TEMPAVG PRESSURE GPRESSURE VOLUME PRESSAVG GPRESSAVG
ENERGY: 0 3.2754 2.6431 0.8305 0.0000 -10835.6800 1403.4532 0.0000 0.0000 1792.8263 -7632.6514 301.7867 -9425.4777 -7632.6514 301.7867 -192.9543 -113.5905 30787.7421 -192.9543 -113.5905
ENERGY: 300000 3.5417 4.4719 0.3918 0.0000 -10841.2639 1379.0331 0.0000 0.0000 1794.6560 -7659.1693 302.0947 -9453.8253 -7647.4322 301.7850 -378.5307 -369.4696 30589.2012 -71.2753 -25.2900
ENERGY: 600000 1.2989 4.6603 0.8154 0.0000 -10904.6062 1436.3868 0.0000 0.0000 1845.0305 -7616.4142 310.5742 -9461.4447 -7658.6574 301.4322 -257.0355 -142.8876 30704.9648 1.5973 66.9692
ENERGY: 900000 1.8499 3.3063 0.4966 0.0000 -11112.3917 1505.8707 0.0000 0.0000 1682.1265 -7918.7417 283.1526 -9600.8682 -7692.2788 298.9447 -143.1287 -96.2477 30647.2519 51.3809 115.9986
ENERGY: 1200000 2.0945 6.4817 0.1595 0.0000 -10834.1437 1410.0524 0.0000 0.0000 1702.4962 -7712.8593 286.5814 -9415.3556 -7694.2302 298.1986 -421.5284 -433.1070 31045.1577 -75.1725 -21.6101
ENERGY: 1500000 1.8528 3.5724 2.8339 0.0000 -10917.4001 1436.3420 0.0000 0.0000 1756.4539 -7716.3452 295.6641 -9472.7990 -7695.3922 298.4579 -273.6271 -216.4942 30915.2407 -71.7005 -17.1021
TCL: Running FEP window  10: Lambda1 0.44999999999999996 Lambda2 0.49999999999999994 [dLambda 0.04999999999999999]
TCL: Setting parameter firsttimestep to 0
TCL: Setting parameter alchLambda to 0.44999999999999996
Info: NONBONDED TABLE R-SQUARED SPACING: 0.0625
Info: NONBONDED TABLE SIZE: 705 POINTS
TCL: Setting parameter alchLambda2 to 0.49999999999999994
Info: NONBONDED TABLE R-SQUARED SPACING: 0.0625
Info: NONBONDED TABLE SIZE: 705 POINTS
TCL: Running for 1500000 steps
ETITLE: TS BOND ANGLE DIHED IMPRP ELECT VDW BOUNDARY MISC KINETIC TOTAL TEMP POTENTIAL TOTALAVG TEMPAVG PRESSURE GPRESSURE VOLUME PRESSAVG GPRESSAVG
ENERGY: 0 1.8528 3.5724 2.8339 0.0000 -10917.4010 1436.6587 0.0000 0.0000 1755.5600 -7716.9232 295.5136 -9472.4832 -7716.9232 295.5136 -297.2577 -212.6476 30915.2407 -297.2577 -212.6476
ENERGY: 300000 0.9658 4.3147 1.6920 0.0000 -10953.4259 1471.2796 0.0000 0.0000 1723.6325 -7751.5414 290.1393 -9475.1738 -7692.9111 298.0609 -292.2567 -204.8391 31221.8926 -318.7137 -222.1183
ENERGY: 600000 2.8616 7.2842 0.9186 0.0000 -10858.2191 1439.8373 0.0000 0.0000 1795.4113 -7611.9061 302.2218 -9407.3174 -7688.2574 299.0066 37.0393 135.2591 30698.1638 -179.8801 -85.1546
ENERGY: 900000 0.1430 5.7453 0.8082 0.0000 -11028.2466 1512.2089 0.0000 0.0000 1827.5538 -7681.7873 307.6323 -9509.3411 -7686.6510 300.8342 165.3389 223.9789 30743.8059 -58.0531 25.3382
ENERGY: 1200000 1.4637 4.5586 0.3785 0.0000 -10793.0633 1370.1952 0.0000 0.0000 1762.7735 -7653.6939 296.7279 -9416.4674 -7688.4479 300.5009 -678.9135 -601.7271 31186.4180 -31.3034 49.1319
ENERGY: 1500000 1.2819 6.3134 0.0877 0.0000 -10866.3048 1382.0814 0.0000 0.0000 1745.2604 -7731.2799 293.7799 -9476.5404 -7693.8957 299.8383 -753.7528 -627.1187 30841.0137 -48.4047 29.7617
TCL: Running FEP window  11: Lambda1 0.49999999999999994 Lambda2 0.5499999999999999 [dLambda 0.04999999999999999]
TCL: Setting parameter firsttimestep to 0
TCL: Setting parameter alchLambda to 0.49999999999999994
Info: NONBONDED TABLE R-SQUARED SPACING: 0.0625
Info: NONBONDED TABLE SIZE: 705 POINTS
TCL: Setting parameter alchLambda2 to 0.5499999999999999
Info: NONBONDED TABLE R-SQUARED SPACING: 0.0625
Info: NONBONDED TABLE SIZE: 705 POINTS
TCL: Running for 1500000 steps
ETITLE: TS BOND ANGLE DIHED IMPRP ELECT VDW BOUNDARY MISC KINETIC TOTAL TEMP POTENTIAL TOTALAVG TEMPAVG PRESSURE GPRESSURE VOLUME PRESSAVG GPRESSAVG
ENERGY: 0 1.2819 6.3134 0.0877 0.0000 -10866.3033 1381.7878 0.0000 0.0000 1744.3536 -7732.4789 293.6272 -9476.8325 -7732.4789 293.6272 -712.1580 -627.3954 30841.0137 -712.1580 -627.3954
ENERGY: 300000 0.9232 3.3385 0.6658 0.0000 -10990.7150 1482.7562 0.0000 0.0000 1815.3522 -7687.6791 305.5785 -9503.0314 -7682.3960 297.9769 126.1982 124.3248 30841.6228 -197.7063 -135.4732
ENERGY: 600000 0.2417 8.1147 0.3588 0.0000 -10758.9118 1386.2848 0.0000 0.0000 1771.5247 -7592.3870 298.2010 -9363.9117 -7649.8014 300.8234 -322.4680 -281.4861 30960.1752 -130.2357 -67.9259
ENERGY: 900000 1.7619 9.9298 0.4185 0.0000 -11008.1777 1530.6291 0.0000 0.0000 1807.8237 -7657.6147 304.3112 -9465.4384 -7662.7772 301.0090 374.6570 407.7502 30917.6857 -233.1343 -182.2114
ENERGY: 1200000 0.9474 6.9140 0.3729 0.0000 -10943.6548 1467.7885 0.0000 0.0000 1779.7359 -7687.8960 299.5832 -9467.6319 -7666.6867 300.9386 209.1994 264.0482 30432.5849 -232.9138 -180.5827
ENERGY: 1500000 1.5333 7.1281 2.1478 0.0000 -10900.1921 1448.0760 0.0000 0.0000 1760.3365 -7680.9703 296.3177 -9441.3068 -7664.6738 300.4991 -61.8059 46.3305 30676.7818 -212.2616 -149.1800
TCL: Running FEP window  12: Lambda1 0.5499999999999999 Lambda2 0.6    [dLambda 0.050000000000000044]
TCL: Setting parameter firsttimestep to 0
TCL: Setting parameter alchLambda to 0.5499999999999999
Info: NONBONDED TABLE R-SQUARED SPACING: 0.0625
Info: NONBONDED TABLE SIZE: 705 POINTS
TCL: Setting parameter alchLambda2 to 0.6
Info: NONBONDED TABLE R-SQUARED SPACING: 0.0625
Info: NONBONDED TABLE SIZE: 705 POINTS
TCL: Running for 1500000 steps
ETITLE: TS BOND ANGLE DIHED IMPRP ELECT VDW BOUNDARY MISC KINETIC TOTAL TEMP POTENTIAL TOTALAVG TEMPAVG PRESSURE GPRESSURE VOLUME PRESSAVG GPRESSAVG
ENERGY: 0 1.5333 7.1281 2.1478 0.0000 -10899.3722 1447.8218 0.0000 0.0000 1759.4421 -7681.2990 296.1671 -9440.7412 -7681.2990 296.1671 -43.1245 50.7714 30676.7818 -43.1245 50.7714
ENERGY: 300000 0.6571 5.0627 0.2185 0.0000 -10719.2792 1345.7764 0.0000 0.0000 1826.9144 -7540.6501 307.5247 -9367.5645 -7652.3653 300.6128 -953.7523 -881.3027 31350.0176 -191.5154 -108.4910
ENERGY: 600000 1.0806 4.7638 1.0543 0.0000 -10963.8258 1438.0596 0.0000 0.0000 1744.5125 -7774.3550 293.6540 -9518.8676 -7688.5139 299.9268 -625.2515 -539.4487 31093.5362 -226.0210 -151.5100
ENERGY: 900000 1.0705 6.2146 1.1441 0.0000 -10936.6536 1526.3276 0.0000 0.0000 1734.1597 -7667.7372 291.9113 -9401.8969 -7678.3979 299.3679 896.4485 1015.0061 30233.3886 7.8171 77.9373
ENERGY: 1200000 0.3980 3.5871 0.2704 0.0000 -10887.1555 1427.6567 0.0000 0.0000 1827.8739 -7627.3693 307.6862 -9455.2432 -7674.0330 300.0367 -176.3859 -74.3336 30707.7516 -107.3369 -31.4468
ENERGY: 1500000 1.5088 1.4378 1.1416 0.0000 -11052.0120 1515.0353 0.0000 0.0000 1809.8644 -7723.0240 304.6547 -9532.8884 -7680.8020 300.1552 232.2410 336.2482 30745.9997 -32.1595 43.2768
TCL: Running FEP window  13: Lambda1 0.6    Lambda2 0.65   [dLambda 0.050000000000000044]
TCL: Setting parameter firsttimestep to 0
TCL: Setting parameter alchLambda to 0.6
Info: NONBONDED TABLE R-SQUARED SPACING: 0.0625
Info: NONBONDED TABLE SIZE: 705 POINTS
TCL: Setting parameter alchLambda2 to 0.65
Info: NONBONDED TABLE R-SQUARED SPACING: 0.0625
Info: NONBONDED TABLE SIZE: 705 POINTS
TCL: Running for 1500000 steps
ETITLE: TS BOND ANGLE DIHED IMPRP ELECT VDW BOUNDARY MISC KINETIC TOTAL TEMP POTENTIAL TOTALAVG TEMPAVG PRESSURE GPRESSURE VOLUME PRESSAVG GPRESSAVG
ENERGY: 0 1.5088 1.4378 1.1416 0.0000 -11052.1559 1514.5205 0.0000 0.0000 1809.0140 -7724.5331 304.5115 -9533.5472 -7724.5331 304.5115 248.5498 336.8859 30745.9997 248.5498 336.8859
ENERGY: 300000 3.1873 3.5901 1.6363 0.0000 -11021.9185 1545.0835 0.0000 0.0000 1804.7278 -7663.6935 303.7900 -9468.4213 -7690.7454 301.6466 986.5378 955.2888 30537.6653 284.4647 327.5867
ENERGY: 600000 0.5083 7.3912 0.2708 0.0000 -11081.1619 1506.4577 0.0000 0.0000 1763.8067 -7802.7271 296.9018 -9566.5339 -7708.6827 300.6361 -91.5062 -33.7818 30983.7655 347.1971 404.1688
ENERGY: 900000 0.1678 4.5485 0.3488 0.0000 -10820.2120 1329.8836 0.0000 0.0000 1802.3545 -7682.9088 303.3905 -9485.2632 -7689.4508 302.1843 -1140.1027 -1046.5581 30791.8987 86.5991 153.9725
ENERGY: 1200000 1.9838 5.7813 1.2480 0.0000 -10867.3908 1422.8947 0.0000 0.0000 1743.5934 -7691.8897 293.4993 -9435.4831 -7686.2673 301.9090 -108.4979 -145.2397 31011.0954 75.9041 132.9254
ENERGY: 1500000 2.1495 5.4657 1.6903 0.0000 -10922.6254 1514.7390 0.0000 0.0000 1799.6597 -7598.9213 302.9369 -9398.5810 -7676.6205 302.4260 570.1888 692.2766 30783.4449 131.9110 188.1715
TCL: Running FEP window  14: Lambda1 0.65   Lambda2 0.7000000000000001 [dLambda 0.050000000000000044]
TCL: Setting parameter firsttimestep to 0
TCL: Setting parameter alchLambda to 0.65
Info: NONBONDED TABLE R-SQUARED SPACING: 0.0625
Info: NONBONDED TABLE SIZE: 705 POINTS
TCL: Setting parameter alchLambda2 to 0.7000000000000001
Info: NONBONDED TABLE R-SQUARED SPACING: 0.0625
Info: NONBONDED TABLE SIZE: 705 POINTS
TCL: Running for 1500000 steps
ETITLE: TS BOND ANGLE DIHED IMPRP ELECT VDW BOUNDARY MISC KINETIC TOTAL TEMP POTENTIAL TOTALAVG TEMPAVG PRESSURE GPRESSURE VOLUME PRESSAVG GPRESSAVG
ENERGY: 0 2.1495 5.4657 1.6903 0.0000 -10923.2059 1514.5400 0.0000 0.0000 1798.7939 -7600.5666 302.7912 -9399.3604 -7600.5666 302.7912 589.1546 692.5356 30783.4449 589.1546 692.5356
ENERGY: 300000 0.5671 8.3537 0.5877 0.0000 -10921.8535 1420.1547 0.0000 0.0000 1754.0862 -7738.1042 295.2655 -9492.1903 -7673.5597 303.6472 -608.6110 -554.9954 30988.2710 -174.9393 -119.7974
ENERGY: 600000 2.4605 6.0940 0.8495 0.0000 -10987.2631 1509.7720 0.0000 0.0000 1806.1836 -7661.9035 304.0351 -9468.0871 -7682.2235 301.6783 576.6407 625.0142 30260.7386 74.3837 143.8592
ENERGY: 900000 0.4514 12.0308 0.2328 0.0000 -10914.0027 1466.6056 0.0000 0.0000 1769.7048 -7664.9774 297.8946 -9434.6822 -7697.6052 299.9771 -14.3419 99.6711 30717.5449 -28.0222 58.0353
ENERGY: 1200000 0.5421 7.3684 0.4238 0.0000 -11003.0358 1474.9590 0.0000 0.0000 1755.4935 -7764.2489 295.5024 -9519.7424 -7700.4542 299.4157 -60.8594 51.0444 30693.9537 -84.0331 1.2873
ENERGY: 1500000 1.5819 4.3606 0.1029 0.0000 -10920.4656 1455.0500 0.0000 0.0000 1789.1491 -7670.2212 301.1677 -9459.3703 -7700.8719 299.9791 -14.3549 64.0692 30503.6880 -70.4468 17.3485
TCL: Running FEP window  15: Lambda1 0.7000000000000001 Lambda2 0.7500000000000001 [dLambda 0.050000000000000044]
TCL: Setting parameter firsttimestep to 0
TCL: Setting parameter alchLambda to 0.7000000000000001
Info: NONBONDED TABLE R-SQUARED SPACING: 0.0625
Info: NONBONDED TABLE SIZE: 705 POINTS
TCL: Setting parameter alchLambda2 to 0.7500000000000001
Info: NONBONDED TABLE R-SQUARED SPACING: 0.0625
Info: NONBONDED TABLE SIZE: 705 POINTS
TCL: Running for 1500000 steps
ETITLE: TS BOND ANGLE DIHED IMPRP ELECT VDW BOUNDARY MISC KINETIC TOTAL TEMP POTENTIAL TOTALAVG TEMPAVG PRESSURE GPRESSURE VOLUME PRESSAVG GPRESSAVG
ENERGY: 0 1.5819 4.3606 0.1029 0.0000 -10921.7042 1455.2075 0.0000 0.0000 1788.2805 -7672.1709 301.0215 -9460.4514 -7672.1709 301.0215 -11.9000 70.5569 30503.6880 -11.9000 70.5569
ENERGY: 300000 2.6521 6.2579 0.5092 0.0000 -10925.9731 1443.6149 0.0000 0.0000 1768.1886 -7704.7504 297.6394 -9472.9390 -7675.1749 302.1472 -120.1316 -50.3743 30821.0151 58.6898 147.0079
ENERGY: 600000 4.1222 8.7732 0.7346 0.0000 -10964.3406 1434.0830 0.0000 0.0000 1767.7553 -7748.8723 297.5665 -9516.6276 -7697.9725 300.0917 -307.8480 -208.0723 30793.2983 66.8889 155.1303
ENERGY: 900000 2.3666 6.3259 1.4103 0.0000 -10950.9439 1434.7014 0.0000 0.0000 1768.7033 -7737.4364 297.7260 -9506.1397 -7690.8474 299.8128 -202.2061 -149.8848 30662.1845 -59.5103 19.8207
ENERGY: 1200000 2.3032 3.2847 0.2612 0.0000 -10767.1428 1399.9185 0.0000 0.0000 1746.6954 -7614.6798 294.0214 -9361.3752 -7674.8729 299.7222 -124.2572 -82.7173 30698.1729 -83.4364 -14.7149
ENERGY: 1500000 1.6149 5.2640 0.3216 0.0000 -10880.6762 1396.3797 0.0000 0.0000 1839.3060 -7637.7899 309.6106 -9477.0959 -7674.6996 300.2445 -124.1539 -108.9573 30327.0541 -22.5593 35.9281
TCL: Running FEP window  16: Lambda1 0.7500000000000001 Lambda2 0.8000000000000002 [dLambda 0.050000000000000044]
TCL: Setting parameter firsttimestep to 0
TCL: Setting parameter alchLambda to 0.7500000000000001
Info: NONBONDED TABLE R-SQUARED SPACING: 0.0625
Info: NONBONDED TABLE SIZE: 705 POINTS
TCL: Setting parameter alchLambda2 to 0.8000000000000002
Info: NONBONDED TABLE R-SQUARED SPACING: 0.0625
Info: NONBONDED TABLE SIZE: 705 POINTS
TCL: Running for 1500000 steps
ETITLE: TS BOND ANGLE DIHED IMPRP ELECT VDW BOUNDARY MISC KINETIC TOTAL TEMP POTENTIAL TOTALAVG TEMPAVG PRESSURE GPRESSURE VOLUME PRESSAVG GPRESSAVG
ENERGY: 0 1.6149 5.2640 0.3216 0.0000 -10882.4922 1397.0586 0.0000 0.0000 1838.3656 -7639.8674 309.4523 -9478.2330 -7639.8674 309.4523 -176.6571 -99.4759 30327.0541 -176.6571 -99.4759
ENERGY: 300000 1.8618 4.7322 0.3616 0.0000 -10853.7333 1404.9735 0.0000 0.0000 1849.9778 -7591.8264 311.4070 -9441.8041 -7634.7631 306.7177 -62.6321 -24.6997 30667.0861 198.3484 250.6041
ENERGY: 600000 1.0732 4.2767 2.6359 0.0000 -10954.5869 1487.8820 0.0000 0.0000 1742.0864 -7716.6326 293.2456 -9458.7191 -7645.2034 303.9118 334.4413 338.8960 30528.8287 196.4387 225.3801
ENERGY: 900000 0.6593 7.9173 0.8440 0.0000 -10928.1530 1415.3430 0.0000 0.0000 1765.6313 -7737.7581 297.2089 -9503.3895 -7673.1449 301.8073 -391.1911 -371.0917 30490.4392 135.3212 165.9479
ENERGY: 1200000 0.3060 6.1761 0.6710 0.0000 -11058.0273 1516.8260 0.0000 0.0000 1766.8317 -7767.2165 297.4110 -9534.0482 -7685.2130 301.4824 430.0554 529.4145 30267.9166 272.0872 311.1878
ENERGY: 1500000 0.8435 7.1635 0.3725 0.0000 -10940.3490 1441.9624 0.0000 0.0000 1822.3442 -7667.6629 306.7554 -9490.0071 -7680.7646 301.8786 -183.3836 -131.2062 30979.1479 254.6077 293.1312
TCL: Running FEP window  17: Lambda1 0.8000000000000002 Lambda2 0.8500000000000002 [dLambda 0.050000000000000044]
TCL: Setting parameter firsttimestep to 0
TCL: Setting parameter alchLambda to 0.8000000000000002
Info: NONBONDED TABLE R-SQUARED SPACING: 0.0625
Info: NONBONDED TABLE SIZE: 705 POINTS
TCL: Setting parameter alchLambda2 to 0.8500000000000002
Info: NONBONDED TABLE R-SQUARED SPACING: 0.0625
Info: NONBONDED TABLE SIZE: 705 POINTS
TCL: Running for 1500000 steps
ETITLE: TS BOND ANGLE DIHED IMPRP ELECT VDW BOUNDARY MISC KINETIC TOTAL TEMP POTENTIAL TOTALAVG TEMPAVG PRESSURE GPRESSURE VOLUME PRESSAVG GPRESSAVG
ENERGY: 0 0.8435 7.1635 0.3725 0.0000 -10942.3321 1443.3594 0.0000 0.0000 1821.4886 -7669.1046 306.6114 -9490.5932 -7669.1046 306.6114 -202.8702 -114.0229 30979.1479 -202.8702 -114.0229
ENERGY: 300000 2.1824 3.7859 0.3300 0.0000 -10996.9551 1435.3046 0.0000 0.0000 1830.1829 -7725.1692 308.0749 -9555.3521 -7670.2911 304.9476 -296.1016 -219.5742 30744.7260 -213.7469 -137.3228
ENERGY: 600000 1.7142 6.6294 1.0362 0.0000 -10954.9371 1470.9122 0.0000 0.0000 1808.5043 -7666.1409 304.4257 -9474.6452 -7681.0183 302.5741 -203.5186 -126.2353 31383.3476 -205.7500 -136.4725
ENERGY: 900000 2.7538 4.5846 0.1620 0.0000 -10837.7380 1434.9766 0.0000 0.0000 1843.5286 -7551.7325 310.3214 -9395.2611 -7663.5276 303.7394 13.8500 93.3404 31116.8725 -129.4384 -57.5750
ENERGY: 1200000 1.9721 5.2035 0.1868 0.0000 -10759.1535 1340.3564 0.0000 0.0000 1842.9384 -7568.4963 310.2220 -9411.4347 -7669.2089 302.4491 -778.7216 -750.7234 31354.7470 -201.4644 -134.3597
ENERGY: 1500000 0.2828 2.8855 0.1965 0.0000 -10865.8890 1364.3812 0.0000 0.0000 1830.3390 -7667.8040 308.1012 -9498.1429 -7684.6230 302.0120 -689.3254 -583.8601 30682.9790 -153.4837 -83.1739
TCL: Running FEP window  18: Lambda1 0.8500000000000002 Lambda2 0.9000000000000002 [dLambda 0.050000000000000044]
TCL: Setting parameter firsttimestep to 0
TCL: Setting parameter alchLambda to 0.8500000000000002
Info: NONBONDED TABLE R-SQUARED SPACING: 0.0625
Info: NONBONDED TABLE SIZE: 705 POINTS
TCL: Setting parameter alchLambda2 to 0.9000000000000002
Info: NONBONDED TABLE R-SQUARED SPACING: 0.0625
Info: NONBONDED TABLE SIZE: 705 POINTS
TCL: Running for 1500000 steps
ETITLE: TS BOND ANGLE DIHED IMPRP ELECT VDW BOUNDARY MISC KINETIC TOTAL TEMP POTENTIAL TOTALAVG TEMPAVG PRESSURE GPRESSURE VOLUME PRESSAVG GPRESSAVG
ENERGY: 0 0.2828 2.8855 0.1965 0.0000 -10867.4373 1364.0361 0.0000 0.0000 1829.4127 -7670.6237 307.9453 -9500.0363 -7670.6237 307.9453 -683.3207 -584.2009 30682.9790 -683.3207 -584.2009
ENERGY: 300000 2.3436 5.1042 0.7278 0.0000 -10969.6320 1435.7967 0.0000 0.0000 1806.9784 -7718.6812 304.1689 -9525.6596 -7695.2905 300.9958 -163.6975 -66.2169 30191.6392 -486.9338 -406.2091
ENERGY: 600000 4.7488 4.5792 0.8324 0.0000 -10907.7405 1444.9442 0.0000 0.0000 1827.0499 -7625.5859 307.5475 -9452.6358 -7666.5299 303.0674 18.8253 41.2198 30972.0650 -191.8760 -115.4245
ENERGY: 900000 2.2152 5.4034 1.0242 0.0000 -10888.0599 1396.6548 0.0000 0.0000 1809.5836 -7673.1787 304.6074 -9482.7623 -7674.8100 302.9233 -607.4682 -551.1943 31019.3291 -215.4056 -148.9206
ENERGY: 1200000 1.7021 9.7129 0.9296 0.0000 -11092.3206 1563.5693 0.0000 0.0000 1751.3954 -7765.0113 294.8126 -9516.4067 -7681.7739 302.3903 1214.2385 1235.3397 29856.6552 -142.3936 -78.1779
ENERGY: 1500000 3.1398 2.0391 0.4299 0.0000 -11049.8927 1519.8019 0.0000 0.0000 1817.4551 -7707.0269 305.9324 -9524.4820 -7690.3485 302.4592 446.3464 567.7592 30449.2939 -72.0901 -7.8829
TCL: Running FEP window  19: Lambda1 0.9000000000000002 Lambda2 0.9500000000000003 [dLambda 0.050000000000000044]
TCL: Setting parameter firsttimestep to 0
TCL: Setting parameter alchLambda to 0.9000000000000002
Info: NONBONDED TABLE R-SQUARED SPACING: 0.0625
Info: NONBONDED TABLE SIZE: 705 POINTS
TCL: Setting parameter alchLambda2 to 0.9500000000000003
Info: NONBONDED TABLE R-SQUARED SPACING: 0.0625
Info: NONBONDED TABLE SIZE: 705 POINTS
TCL: Running for 1500000 steps
ETITLE: TS BOND ANGLE DIHED IMPRP ELECT VDW BOUNDARY MISC KINETIC TOTAL TEMP POTENTIAL TOTALAVG TEMPAVG PRESSURE GPRESSURE VOLUME PRESSAVG GPRESSAVG
ENERGY: 0 3.1398 2.0391 0.4299 0.0000 -11053.7277 1522.8692 0.0000 0.0000 1816.6015 -7708.6483 305.7887 -9525.2497 -7708.6483 305.7887 518.9522 602.5641 30449.2939 518.9522 602.5641
ENERGY: 300000 1.1556 5.3820 0.3928 0.0000 -10952.5172 1443.0477 0.0000 0.0000 1787.5961 -7714.9429 300.9063 -9502.5391 -7698.8257 301.5287 -299.5157 -219.0735 31156.2076 -97.4553 -56.3158
ENERGY: 600000 2.8279 6.6044 0.2860 0.0000 -10962.8106 1472.7608 0.0000 0.0000 1784.9923 -7695.3392 300.4680 -9480.3315 -7688.0485 300.4812 228.7306 298.1034 30399.1331 -19.6379 53.6076
ENERGY: 900000 1.0346 4.8805 1.0771 0.0000 -10962.5902 1385.5284 0.0000 0.0000 1796.2433 -7773.8262 302.3619 -9570.0695 -7697.8812 299.2642 -670.2138 -644.0280 30426.6581 -100.6963 -34.5446
ENERGY: 1200000 2.0426 5.4829 0.1294 0.0000 -10939.6391 1401.0362 0.0000 0.0000 1746.3354 -7784.6126 293.9608 -9530.9480 -7711.7227 298.5073 -544.0321 -511.7802 30658.0592 -65.3559 -3.3659
ENERGY: 1500000 0.4930 4.8802 1.7298 0.0000 -11050.2411 1543.3423 0.0000 0.0000 1858.0942 -7641.7016 312.7732 -9499.7958 -7698.7089 300.3421 834.9095 905.2646 30227.3321 43.1372 105.6244
TCL: Running FEP window  20: Lambda1 0.9500000000000003 Lambda2 1.0    [dLambda 0.04999999999999971]
TCL: Setting parameter firsttimestep to 0
TCL: Setting parameter alchLambda to 0.9500000000000003
Info: NONBONDED TABLE R-SQUARED SPACING: 0.0625
Info: NONBONDED TABLE SIZE: 705 POINTS
TCL: Setting parameter alchLambda2 to 1.0
Info: NONBONDED TABLE R-SQUARED SPACING: 0.0625
Info: NONBONDED TABLE SIZE: 705 POINTS
TCL: Running for 1500000 steps
ETITLE: TS BOND ANGLE DIHED IMPRP ELECT VDW BOUNDARY MISC KINETIC TOTAL TEMP POTENTIAL TOTALAVG TEMPAVG PRESSURE GPRESSURE VOLUME PRESSAVG GPRESSAVG
ENERGY: 0 0.4930 4.8802 1.7298 0.0000 -11052.4871 1543.7297 0.0000 0.0000 1857.1778 -7644.4767 312.6190 -9501.6544 -7644.4767 312.6190 839.3235 916.8433 30227.3321 839.3235 916.8433
ENERGY: 300000 2.1003 6.4228 1.6860 0.0000 -10902.0960 1473.7326 0.0000 0.0000 1773.9787 -7644.1756 298.6140 -9418.1543 -7679.1494 301.3557 258.9342 309.2862 30704.3442 62.2664 137.6724
ENERGY: 600000 0.4488 5.4473 0.0628 0.0000 -10932.4516 1508.7229 0.0000 0.0000 1791.8043 -7625.9656 301.6146 -9417.7698 -7661.8550 301.6239 439.2859 498.9888 30801.0559 -114.9490 -45.7646
ENERGY: 900000 3.5449 6.9287 0.3349 0.0000 -10948.5903 1433.8501 0.0000 0.0000 1829.7665 -7674.1652 308.0048 -9503.9317 -7674.0528 301.5777 -190.2846 -107.6067 30948.6497 -256.6658 -193.8800
ENERGY: 1200000 0.3937 5.4717 0.1912 0.0000 -10921.7869 1401.2315 0.0000 0.0000 1815.3820 -7699.1168 305.5835 -9514.4988 -7678.0984 301.7949 -695.1698 -638.4643 30991.3266 -193.3708 -134.2631
ENERGY: 1500000 1.2169 5.5879 0.2712 0.0000 -10908.5294 1376.5785 0.0000 0.0000 1773.8825 -7750.9923 298.5979 -9524.8749 -7684.5229 300.7139 -799.8191 -720.2374 30884.6789 -221.9083 -161.4577
TCL: Exiting due to exit command.
