Info: SIMULATION PARAMETERS:
Info: TIMESTEP               2
Info: NUMBER OF STEPS        0
Info: STEPS PER CYCLE        10
Info: PERIODIC CELL BASIS 1  31.1743 0 0
Info: PERIODIC CELL BASIS 2  0 29.7442 0
Info: PERIODIC CELL BASIS 3  0 0 33.1199
Info: PERIODIC CELL CENTER   0 0 0
Info: WRAPPING WATERS AROUND PERIODIC BOUNDARIES ON OUTPUT.
Info: WRAPPING ALL CLUSTERS AROUND PERIODIC BOUNDARIES ON OUTPUT.
Info: FIRST LDB TIMESTEP     50
Info: LAST LDB TIMESTEP     -1
Info: HOM BACKGROUND SCALING 1
Info: PME BACKGROUND SCALING 1
Info: MIN ATOMS PER PATCH    40
Info: EMPTY PATCH LOAD       40 ATOMS
Info: VELOCITY FILE          mobley_20524_equil.vel
Info: CENTER OF MASS MOVING INITIALLY? NO
Info: DIELECTRIC             1
Info: EXCLUDE                SCALED ONE-FOUR
Info: 1-4 ELECTROSTATICS SCALED BY 0.833333
Info: MODIFIED 1-4 VDW PARAMETERS WILL BE USED
Info: DCD FILENAME           mobley_20524_prod.dcd
Info: DCD FREQUENCY          100000
Info: DCD FIRST STEP         100000
Info: DCD FILE WILL CONTAIN UNIT CELL DATA
Info: XST FILENAME           mobley_20524_prod.xst
Info: XST FREQUENCY          100000
Info: NO VELOCITY DCD OUTPUT
Info: NO FORCE DCD OUTPUT
Info: OUTPUT FILENAME        mobley_20524_prod
Info: BINARY OUTPUT FILES WILL BE USED
Info: RESTART FILENAME       mobley_20524_prod.restart
Info: RESTART FREQUENCY      100000
Info: BINARY RESTART FILES WILL BE USED
Info: CUTOFF                 9
Info: PAIRLIST DISTANCE      11
Info: PAIRLIST SHRINK RATE   0.01
Info: PAIRLIST GROW RATE     0.01
Info: PAIRLIST TRIGGER       0.3
Info: PAIRLISTS PER CYCLE    2
Info: PAIRLISTS ENABLED
Info: MARGIN                 2
Info: HYDROGEN GROUP CUTOFF  2.5
Info: PATCH DIMENSION        15.5
Info: ENERGY OUTPUT STEPS    100000
Info: ENERGY EVALUATION STEPS    100000
Info: OUTPUT ENERGY PRECISION 4
Info: CROSSTERM ENERGY INCLUDED IN DIHEDRAL
Info: TIMING OUTPUT STEPS    1000000
Info: PRESSURE OUTPUT STEPS  100000
Info: ALCHEMICAL FEP ON
Info: FEP CURRENT LAMBDA VALUE     0
Info: FEP COMPARISON LAMBDA VALUE  0.05
Info: FEP INTRA-ALCHEMICAL NON-BONDED INTERACTIONS WILL BE RETAINED
Info: FEP INTRA-ALCHEMICAL BONDED INTERACTIONS WILL BE RETAINED
Info: FEP VDW SHIFTING COEFFICIENT 5
Info: FEP ELEC. ACTIVE FOR ANNIHILATED PARTICLES BETWEEN LAMBDA = 0 AND LAMBDA = 0.5
Info: FEP ELEC. ACTIVE FOR EXNIHILATED PARTICLES BETWEEN LAMBDA = 0.5 AND LAMBDA = 1
Info: FEP VDW ACTIVE FOR ANNIHILATED PARTICLES BETWEEN LAMBDA = 0 AND LAMBDA = 1
Info: FEP VDW ACTIVE FOR EXNIHILATED PARTICLES BETWEEN LAMBDA = 0 AND LAMBDA = 1
Info: FEP BOND ACTIVE FOR ANNIHILATED PARTICLES BETWEEN LAMBDA = 1 AND LAMBDA = 1
Info: FEP BOND ACTIVE FOR EXNIHILATED PARTICLES BETWEEN LAMBDA = 0 AND LAMBDA = 0
Info: LANGEVIN DYNAMICS ACTIVE
Info: LANGEVIN TEMPERATURE   300
Info: LANGEVIN USING BBK INTEGRATOR
Info: LANGEVIN DAMPING COEFFICIENT IS 1 INVERSE PS
Info: LANGEVIN DYNAMICS APPLIED TO HYDROGENS
Info: LANGEVIN PISTON PRESSURE CONTROL ACTIVE
Info:        TARGET PRESSURE IS 1.01325 BAR
Info:     OSCILLATION PERIOD IS 50 FS
Info:             DECAY TIME IS 25 FS
Info:     PISTON TEMPERATURE IS 300 K
Info:       PRESSURE CONTROL IS GROUP-BASED
Info:    INITIAL STRAIN RATE IS -1.41332e-05 -1.41332e-05 -1.41332e-05
Info:       CELL FLUCTUATION IS ISOTROPIC
Info: PARTICLE MESH EWALD (PME) ACTIVE
Info: PME TOLERANCE               1e-06
Info: PME EWALD COEFFICIENT       0.348832
Info: PME INTERPOLATION ORDER     4
Info: PME GRID DIMENSIONS         32 32 36
Info: PME MAXIMUM GRID SPACING    1
Info: PME CALCULATION WILL BE PERFORMED ON GPU
Info: FULL ELECTROSTATIC EVALUATION FREQUENCY      2
Info: USING VERLET I (r-RESPA) MTS SCHEME.
Info: C1 SPLITTING OF LONG RANGE ELECTROSTATICS
Info: PLACING ATOMS IN PATCHES BY HYDROGEN GROUPS
Info: RIGID BONDS TO HYDROGEN : ALL
Info:         ERROR TOLERANCE : 1e-08
Info:          MAX ITERATIONS : 100
Info: RIGID WATER USING SETTLE ALGORITHM
Info: RANDOM NUMBER SEED     1742571133
Info: USE HYDROGEN BONDS?    NO
Info: Using AMBER format force field!
Info: AMBER PARM FILE        mobley_20524.prmtop
Info: COORDINATE PDB         mobley_20524.pdb
Info: Exclusions will be read from PARM file!
Info: SCNB (VDW SCALING)     2
Info: USING ARITHMETIC MEAN TO COMBINE L-J SIGMA PARAMETERS
Info: BINARY COORDINATES     mobley_20524_equil.coor
Info: SUMMARY OF PARAMETERS:
Info: 6 BONDS
Info: 4 ANGLES
Info:   4 HARMONIC
Info:   0 COSINE-BASED
Info: 3 DIHEDRAL
Info: 0 IMPROPER
Info: 0 CROSSTERM
Info: 0 VDW
Info: 21 VDW_PAIRS
Info: 0 NBTHOLE_PAIRS
Info: To read alchdata from file: mobley_20524.pdb
Info: To read alchflag data from column: 5
Info: STRUCTURE SUMMARY:
Info: 2974 ATOMS
Info: 2974 BONDS
Info: 19 ANGLES
Info: 31 DIHEDRALS
Info: 0 IMPROPERS
Info: 0 CROSSTERMS
Info: 3016 EXCLUSIONS
Info: 2967 RIGID BONDS
Info: ALCH: 0 ATOMS TO DISAPPEAR IN FINAL STATE
Info: ALCH: 13 ATOMS TO APPEAR IN FINAL STATE
Info: 5955 DEGREES OF FREEDOM
Info: 994 HYDROGEN GROUPS
Info: 3 ATOMS IN LARGEST HYDROGEN GROUP
Info: 994 MIGRATION GROUPS
Info: 3 ATOMS IN LARGEST MIGRATION GROUP
Info: TOTAL MASS = 17875.9 amu
Info: TOTAL CHARGE = -1.49012e-08 e
Info: MASS DENSITY = 0.966584 g/cm^3
Info: ATOM DENSITY = 0.0968397 atoms/A^3
Info: ADDED 0 IMPLICIT EXCLUSIONS
Info: NONBONDED TABLE R-SQUARED SPACING: 0.0625
Info: NONBONDED TABLE SIZE: 705 POINTS
Info: REMOVING COM VELOCITY 0.147656 -0.00756166 -0.160353
Info: Use 3D box decompostion in PME FFT.
Info: Updated CUDA force table with 4096 elements.
Info: Updated CUDA LJ table with 6 x 6 elements.
Info: Found 15 unique exclusion lists needing 28 bytes
TCL: Running for 1500000 steps
ETITLE: TS BOND ANGLE DIHED IMPRP ELECT VDW BOUNDARY MISC KINETIC TOTAL TEMP POTENTIAL TOTALAVG TEMPAVG PRESSURE GPRESSURE VOLUME PRESSAVG GPRESSAVG
ENERGY: 0 1.1742 5.8012 4.0801 0.0000 -10647.6542 1404.0815 0.0000 0.0000 1760.6741 -7471.8431 297.5689 -9232.5173 -7471.8431 297.5689 -376.5047 -297.4216 30710.5407 -376.5047 -297.4216
ENERGY: 300000 1.8206 2.2971 1.8765 0.0000 -10682.2307 1456.4388 0.0000 0.0000 1765.2898 -7454.5080 298.3490 -9219.7977 -7461.4583 301.6039 74.4975 202.3452 31136.3629 72.2935 132.7556
ENERGY: 600000 0.8641 3.0142 2.4494 0.0000 -10802.9999 1507.9304 0.0000 0.0000 1784.3895 -7504.3523 301.5770 -9288.7418 -7492.9778 300.3975 317.0672 379.4254 30898.5532 -8.8665 63.2249
ENERGY: 900000 2.8265 2.8340 5.4495 0.0000 -10820.9031 1448.2691 0.0000 0.0000 1715.5912 -7645.9328 289.9495 -9361.5241 -7509.3618 299.1925 -190.9576 -113.0015 30413.7609 -33.6847 43.6567
ENERGY: 1200000 3.2942 2.0362 2.0118 0.0000 -10720.4009 1416.6739 0.0000 0.0000 1779.8173 -7516.5677 300.8043 -9296.3850 -7510.7255 299.0292 -469.2771 -387.2753 30868.2646 -102.8316 -23.7031
ENERGY: 1500000 1.9807 2.2788 2.9158 0.0000 -10667.7479 1352.1408 0.0000 0.0000 1833.7120 -7474.7198 309.9130 -9308.4318 -7516.2774 299.2175 -846.0089 -840.6551 31069.3637 -73.3229 -6.4006
TCL: Running FEP window   2: Lambda1 0.05   Lambda2 0.1    [dLambda 0.05  ]
TCL: Setting parameter firsttimestep to 0
TCL: Setting parameter alchLambda to 0.05
Info: NONBONDED TABLE R-SQUARED SPACING: 0.0625
Info: NONBONDED TABLE SIZE: 705 POINTS
TCL: Setting parameter alchLambda2 to 0.1
Info: NONBONDED TABLE R-SQUARED SPACING: 0.0625
Info: NONBONDED TABLE SIZE: 705 POINTS
TCL: Running for 1500000 steps
ETITLE: TS BOND ANGLE DIHED IMPRP ELECT VDW BOUNDARY MISC KINETIC TOTAL TEMP POTENTIAL TOTALAVG TEMPAVG PRESSURE GPRESSURE VOLUME PRESSAVG GPRESSAVG
ENERGY: 0 1.9807 2.2788 2.9158 0.0000 -10667.7480 1354.4585 0.0000 0.0000 1832.7770 -7473.3372 309.7549 -9306.1141 -7473.3372 309.7549 -923.6257 -836.6799 31069.3637 -923.6257 -836.6799
ENERGY: 300000 5.7523 1.4485 7.1429 0.0000 -10799.2868 1489.0717 0.0000 0.0000 1780.6618 -7515.2096 300.9470 -9295.8714 -7517.1608 302.8143 319.6172 360.0023 30192.6716 -179.0845 -120.2705
ENERGY: 600000 1.6651 2.8989 1.5017 0.0000 -10825.0615 1476.3693 0.0000 0.0000 1776.9637 -7565.6629 300.3220 -9342.6265 -7553.8652 302.3664 159.6140 216.8935 30325.6840 -154.0715 -75.3814
ENERGY: 900000 1.5431 12.0393 5.1097 0.0000 -10759.6269 1488.4921 0.0000 0.0000 1808.7699 -7443.6728 305.6975 -9252.4427 -7549.8876 302.3312 451.9369 477.5244 30456.5568 53.3264 111.1732
ENERGY: 1200000 2.9340 1.8876 3.1057 0.0000 -10746.1657 1391.2924 0.0000 0.0000 1743.1175 -7603.8285 294.6017 -9346.9460 -7543.7066 302.5456 -194.2249 -166.9137 29747.1686 36.4067 87.1650
ENERGY: 1500000 2.0254 2.3273 1.9985 0.0000 -10633.7899 1378.4664 0.0000 0.0000 1813.0854 -7435.8869 306.4269 -9248.9723 -7531.8098 303.0872 -330.8602 -255.1854 30606.2719 11.8442 67.1554
TCL: Running FEP window   3: Lambda1 0.1    Lambda2 0.15000000000000002 [dLambda 0.05000000000000002]
TCL: Setting parameter firsttimestep to 0
TCL: Setting parameter alchLambda to 0.1
Info: NONBONDED TABLE R-SQUARED SPACING: 0.0625
Info: NONBONDED TABLE SIZE: 705 POINTS
TCL: Setting parameter alchLambda2 to 0.15000000000000002
Info: NONBONDED TABLE R-SQUARED SPACING: 0.0625
Info: NONBONDED TABLE SIZE: 705 POINTS
TCL: Running for 1500000 steps
ETITLE: TS BOND ANGLE DIHED IMPRP ELECT VDW BOUNDARY MISC KINETIC TOTAL TEMP POTENTIAL TOTALAVG TEMPAVG PRESSURE GPRESSURE VOLUME PRESSAVG GPRESSAVG
ENERGY: 0 2.0254 2.3273 1.9985 0.0000 -10633.7894 1380.9466 0.0000 0.0000 1812.1994 -7434.2921 306.2772 -9246.4916 -7434.2921 306.2772 -348.7976 -249.4421 30606.2719 -348.7976 -249.4421
ENERGY: 300000 1.3010 2.0824 5.0832 0.0000 -10766.9647 1440.9497 0.0000 0.0000 1775.9168 -7541.6316 300.1451 -9317.5484 -7534.5689 303.6283 185.9049 221.9081 30057.9605 -138.7608 -79.4238
ENERGY: 600000 3.6906 3.6016 3.2384 0.0000 -10775.3732 1466.0224 0.0000 0.0000 1781.5659 -7517.2545 301.0998 -9298.8204 -7552.1001 301.1533 166.6070 244.9896 30531.7723 -36.9331 37.4124
ENERGY: 900000 1.5953 2.3147 2.6980 0.0000 -11033.6505 1574.2536 0.0000 0.0000 1789.3548 -7663.4342 302.4162 -9452.7889 -7561.5515 300.9306 667.2743 744.9078 30298.5245 142.1764 213.5514
ENERGY: 1200000 3.3276 3.5165 2.4103 0.0000 -11024.0350 1545.0333 0.0000 0.0000 1785.7034 -7684.0439 301.7991 -9469.7473 -7572.0574 299.8810 339.7413 404.9335 30531.5475 178.2532 244.2238
ENERGY: 1500000 3.8732 3.0258 5.9114 0.0000 -10801.8829 1467.3486 0.0000 0.0000 1790.2219 -7531.5020 302.5628 -9321.7239 -7562.4723 300.2722 146.6271 200.9409 30654.8873 146.6744 209.2087
TCL: Running FEP window   4: Lambda1 0.15000000000000002 Lambda2 0.2    [dLambda 0.04999999999999999]
TCL: Setting parameter firsttimestep to 0
TCL: Setting parameter alchLambda to 0.15000000000000002
Info: NONBONDED TABLE R-SQUARED SPACING: 0.0625
Info: NONBONDED TABLE SIZE: 705 POINTS
TCL: Setting parameter alchLambda2 to 0.2
Info: NONBONDED TABLE R-SQUARED SPACING: 0.0625
Info: NONBONDED TABLE SIZE: 705 POINTS
TCL: Running for 1500000 steps
ETITLE: TS BOND ANGLE DIHED IMPRP ELECT VDW BOUNDARY MISC KINETIC TOTAL TEMP POTENTIAL TOTALAVG TEMPAVG PRESSURE GPRESSURE VOLUME PRESSAVG GPRESSAVG
ENERGY: 0 3.8732 3.0258 5.9114 0.0000 -10801.8828 1467.1901 0.0000 0.0000 1789.3577 -7532.5245 302.4167 -9321.8822 -7532.5245 302.4167 123.7015 202.1202 30654.8873 123.7015 202.1202
ENERGY: 300000 4.2905 4.6257 2.2481 0.0000 -10843.5366 1517.7385 0.0000 0.0000 1723.2210 -7591.4127 291.2390 -9314.6337 -7562.8800 296.7070 485.6287 542.1293 30350.8204 207.0760 281.8942
ENERGY: 600000 1.0421 2.2696 3.2292 0.0000 -10805.1368 1430.4000 0.0000 0.0000 1750.2991 -7617.8968 295.8155 -9368.1959 -7580.1337 296.6508 -232.8572 -186.2430 30488.9087 103.2667 175.4346
ENERGY: 900000 1.5714 1.4684 6.4999 0.0000 -10651.6560 1419.7582 0.0000 0.0000 1836.7380 -7385.6201 310.4244 -9222.3581 -7561.3728 298.9782 76.2653 109.4044 30801.8554 158.2582 230.0816
ENERGY: 1200000 1.2917 4.5785 3.5515 0.0000 -10756.0984 1463.0358 0.0000 0.0000 1735.2303 -7548.4107 293.2687 -9283.6410 -7559.2706 298.8201 213.7720 315.1016 30397.5183 94.5161 161.2305
ENERGY: 1500000 1.8313 2.2650 2.9887 0.0000 -10854.1599 1465.1344 0.0000 0.0000 1829.3540 -7552.5864 309.1764 -9381.9404 -7555.2127 300.2615 -61.7485 -7.0871 30461.0402 105.8350 169.2024
TCL: Running FEP window   5: Lambda1 0.2    Lambda2 0.25   [dLambda 0.04999999999999999]
TCL: Setting parameter firsttimestep to 0
TCL: Setting parameter alchLambda to 0.2
Info: NONBONDED TABLE R-SQUARED SPACING: 0.0625
Info: NONBONDED TABLE SIZE: 705 POINTS
TCL: Setting parameter alchLambda2 to 0.25
Info: NONBONDED TABLE R-SQUARED SPACING: 0.0625
Info: NONBONDED TABLE SIZE: 705 POINTS
TCL: Running for 1500000 steps
ETITLE: TS BOND ANGLE DIHED IMPRP ELECT VDW BOUNDARY MISC KINETIC TOTAL TEMP POTENTIAL TOTALAVG TEMPAVG PRESSURE GPRESSURE VOLUME PRESSAVG GPRESSAVG
ENERGY: 0 1.8313 2.2650 2.9887 0.0000 -10854.1597 1465.6274 0.0000 0.0000 1828.5210 -7552.9261 309.0356 -9381.4472 -7552.9261 309.0356 -83.1200 -3.2573 30461.0402 -83.1200 -3.2573
ENERGY: 300000 4.3962 4.1229 2.6311 0.0000 -10805.8156 1552.0206 0.0000 0.0000 1842.5970 -7400.0479 311.4146 -9242.6449 -7496.7863 305.5849 969.7810 1025.2561 30596.4439 189.9431 240.7311
ENERGY: 600000 2.4047 5.7039 5.2903 0.0000 -10932.2855 1485.7661 0.0000 0.0000 1769.8040 -7663.3165 299.1120 -9433.1205 -7523.4742 303.0293 -121.6159 -23.6740 30321.2703 287.3272 348.6745
ENERGY: 900000 1.6706 6.5775 2.7256 0.0000 -10764.4368 1420.4272 0.0000 0.0000 1753.3582 -7579.6777 296.3325 -9333.0359 -7543.0395 301.4905 7.7902 75.4105 30077.7142 321.2183 381.8256
ENERGY: 1200000 3.7118 5.9623 0.6744 0.0000 -10777.7081 1436.0409 0.0000 0.0000 1784.6455 -7546.6730 301.6203 -9331.3185 -7555.4370 301.1172 -593.9331 -498.8708 31304.9358 177.4182 234.5932
ENERGY: 1500000 2.1183 6.5865 2.8865 0.0000 -10653.1725 1350.5627 0.0000 0.0000 1748.0662 -7542.9524 295.4381 -9291.0185 -7556.2493 300.7920 -624.5248 -577.6966 30497.6934 138.0624 197.3641
TCL: Running FEP window   6: Lambda1 0.25   Lambda2 0.3    [dLambda 0.04999999999999999]
TCL: Setting parameter firsttimestep to 0
TCL: Setting parameter alchLambda to 0.25
Info: NONBONDED TABLE R-SQUARED SPACING: 0.0625
Info: NONBONDED TABLE SIZE: 705 POINTS
TCL: Setting parameter alchLambda2 to 0.3
Info: NONBONDED TABLE R-SQUARED SPACING: 0.0625
Info: NONBONDED TABLE SIZE: 705 POINTS
TCL: Running for 1500000 steps
ETITLE: TS BOND ANGLE DIHED IMPRP ELECT VDW BOUNDARY MISC KINETIC TOTAL TEMP POTENTIAL TOTALAVG TEMPAVG PRESSURE GPRESSURE VOLUME PRESSAVG GPRESSAVG
ENERGY: 0 2.1183 6.5865 2.8865 0.0000 -10653.1732 1351.7558 0.0000 0.0000 1747.1857 -7542.6404 295.2893 -9289.8261 -7542.6404 295.2893 -653.8327 -568.4685 30497.6934 -653.8327 -568.4685
ENERGY: 300000 2.0420 2.9062 5.3992 0.0000 -10691.8613 1414.4975 0.0000 0.0000 1749.1405 -7517.8759 295.6197 -9267.0164 -7503.4728 301.4360 -245.3762 -252.4338 30851.1664 -385.8825 -338.8619
ENERGY: 600000 2.9288 5.1437 4.1888 0.0000 -10876.9498 1513.4655 0.0000 0.0000 1776.7864 -7574.4367 300.2921 -9351.2231 -7517.4267 302.5961 533.8373 557.9430 30428.1931 -227.5779 -177.9243
ENERGY: 900000 0.2979 2.2397 4.2864 0.0000 -10689.8321 1418.4044 0.0000 0.0000 1796.3542 -7468.2496 303.5992 -9264.6038 -7523.1588 302.4383 -216.1386 -59.4996 30634.2673 -129.3510 -60.4559
ENERGY: 1200000 4.4455 4.4290 1.6691 0.0000 -10794.8855 1476.0514 0.0000 0.0000 1764.7852 -7543.5053 298.2637 -9308.2905 -7536.3738 301.5610 422.3584 399.2469 30110.8508 -88.4797 -30.4741
ENERGY: 1500000 2.8078 3.9048 0.9614 0.0000 -10844.5045 1526.6678 0.0000 0.0000 1724.4052 -7585.7577 291.4392 -9310.1628 -7542.3541 300.7415 367.3087 441.8763 30565.5332 -140.2557 -76.1035
TCL: Running FEP window   7: Lambda1 0.3    Lambda2 0.35   [dLambda 0.04999999999999999]
TCL: Setting parameter firsttimestep to 0
TCL: Setting parameter alchLambda to 0.3
Info: NONBONDED TABLE R-SQUARED SPACING: 0.0625
Info: NONBONDED TABLE SIZE: 705 POINTS
TCL: Setting parameter alchLambda2 to 0.35
Info: NONBONDED TABLE R-SQUARED SPACING: 0.0625
Info: NONBONDED TABLE SIZE: 705 POINTS
TCL: Running for 1500000 steps
ETITLE: TS BOND ANGLE DIHED IMPRP ELECT VDW BOUNDARY MISC KINETIC TOTAL TEMP POTENTIAL TOTALAVG TEMPAVG PRESSURE GPRESSURE VOLUME PRESSAVG GPRESSAVG
ENERGY: 0 2.8078 3.9048 0.9614 0.0000 -10844.5051 1526.3124 0.0000 0.0000 1723.5342 -7586.9846 291.2920 -9310.5188 -7586.9846 291.2920 363.5541 442.4005 30565.5332 363.5541 442.4005
ENERGY: 300000 2.8393 3.6337 4.0594 0.0000 -10867.4674 1495.7280 0.0000 0.0000 1763.7162 -7597.4909 298.0831 -9361.2071 -7616.3338 297.1806 451.7171 496.8938 30078.5239 328.9143 407.5536
ENERGY: 600000 2.2975 6.6958 2.6886 0.0000 -10833.0090 1505.0935 0.0000 0.0000 1775.0174 -7541.2162 299.9931 -9316.2335 -7576.1604 297.6358 230.2043 306.4692 30681.0792 62.0214 145.5897
ENERGY: 900000 1.8511 1.5892 2.0965 0.0000 -10742.7138 1437.4355 0.0000 0.0000 1762.7390 -7537.0026 297.9179 -9299.7415 -7574.1758 297.4855 -124.7464 -133.6762 30896.4645 192.4426 258.9641
ENERGY: 1200000 1.2717 4.5157 4.0206 0.0000 -10871.1921 1447.8302 0.0000 0.0000 1775.7492 -7637.8047 300.1167 -9413.5538 -7583.5026 297.7521 -29.3809 7.2806 29998.6002 81.1139 149.8823
ENERGY: 1500000 1.8327 0.9973 4.1946 0.0000 -10842.6847 1452.1434 0.0000 0.0000 1810.5911 -7572.9256 306.0053 -9383.5167 -7584.3729 298.1103 -222.7631 -116.0088 30483.2481 64.6288 136.2005
TCL: Running FEP window   8: Lambda1 0.35   Lambda2 0.39999999999999997 [dLambda 0.04999999999999999]
TCL: Setting parameter firsttimestep to 0
TCL: Setting parameter alchLambda to 0.35
Info: NONBONDED TABLE R-SQUARED SPACING: 0.0625
Info: NONBONDED TABLE SIZE: 705 POINTS
TCL: Setting parameter alchLambda2 to 0.39999999999999997
Info: NONBONDED TABLE R-SQUARED SPACING: 0.0625
Info: NONBONDED TABLE SIZE: 705 POINTS
TCL: Running for 1500000 steps
ETITLE: TS BOND ANGLE DIHED IMPRP ELECT VDW BOUNDARY MISC KINETIC TOTAL TEMP POTENTIAL TOTALAVG TEMPAVG PRESSURE GPRESSURE VOLUME PRESSAVG GPRESSAVG
ENERGY: 0 1.8327 0.9973 4.1946 0.0000 -10842.6845 1451.7745 0.0000 0.0000 1809.7446 -7574.1408 305.8623 -9383.8854 -7574.1408 305.8623 -215.5896 -115.9934 30483.2481 -215.5896 -115.9934
ENERGY: 300000 1.6856 3.7184 2.7499 0.0000 -10818.3826 1492.6014 0.0000 0.0000 1792.1126 -7525.5147 302.8823 -9317.6273 -7546.4138 299.3944 594.0784 606.1988 30306.3900 -209.3579 -139.1969
ENERGY: 600000 0.6503 4.6004 2.6604 0.0000 -10725.1813 1414.3840 0.0000 0.0000 1744.3917 -7558.4946 294.8171 -9302.8863 -7558.9795 298.8010 -186.4397 -174.8285 30733.7442 -76.5579 -22.9534
ENERGY: 900000 0.5506 3.2338 2.1513 0.0000 -10939.7982 1587.5385 0.0000 0.0000 1782.6086 -7563.7154 301.2761 -9346.3241 -7560.5013 300.7637 816.4130 915.2610 30742.3423 25.0453 88.7845
ENERGY: 1200000 1.9506 4.4748 5.5461 0.0000 -10804.2704 1485.0971 0.0000 0.0000 1751.5906 -7555.6112 296.0337 -9307.2018 -7565.3082 299.8301 420.9313 437.8640 30329.6670 43.8952 95.4420
ENERGY: 1500000 1.3798 5.6374 6.1739 0.0000 -10783.2718 1479.3156 0.0000 0.0000 1726.9332 -7563.8320 291.8664 -9290.7652 -7562.8771 299.4117 241.5032 211.8382 30826.9707 -34.1412 14.6246
TCL: Running FEP window   9: Lambda1 0.39999999999999997 Lambda2 0.44999999999999996 [dLambda 0.04999999999999999]
TCL: Setting parameter firsttimestep to 0
TCL: Setting parameter alchLambda to 0.39999999999999997
Info: NONBONDED TABLE R-SQUARED SPACING: 0.0625
Info: NONBONDED TABLE SIZE: 705 POINTS
TCL: Setting parameter alchLambda2 to 0.44999999999999996
Info: NONBONDED TABLE R-SQUARED SPACING: 0.0625
Info: NONBONDED TABLE SIZE: 705 POINTS
TCL: Running for 1500000 steps
ETITLE: TS BOND ANGLE DIHED IMPRP ELECT VDW BOUNDARY MISC KINETIC TOTAL TEMP POTENTIAL TOTALAVG TEMPAVG PRESSURE GPRESSURE VOLUME PRESSAVG GPRESSAVG
ENERGY: 0 1.3798 5.6374 6.1739 0.0000 -10783.2717 1479.4310 0.0000 0.0000 1726.0401 -7564.6095 291.7155 -9290.6495 -7564.6095 291.7155 157.3621 213.4812 30826.9707 157.3621 213.4812
ENERGY: 300000 1.5073 1.7300 1.9602 0.0000 -10845.9377 1483.2479 0.0000 0.0000 1764.2999 -7593.1923 298.1817 -9357.4922 -7590.4382 294.6449 227.6752 277.4858 30259.3888 -234.9280 -153.8831
ENERGY: 600000 3.1374 2.2596 3.0787 0.0000 -10901.9599 1571.0179 0.0000 0.0000 1779.0717 -7543.3946 300.6783 -9322.4663 -7571.3791 295.4700 989.2254 1050.2748 30181.4689 -79.2456 -10.6350
ENERGY: 900000 0.3381 3.3254 1.8328 0.0000 -10844.8027 1422.1562 0.0000 0.0000 1783.4069 -7633.7433 301.4110 -9417.1502 -7568.1547 297.4620 -435.1736 -443.6779 30503.3315 -211.6372 -144.8847
ENERGY: 1200000 1.8696 1.7023 2.5840 0.0000 -10734.3297 1392.5285 0.0000 0.0000 1792.7045 -7542.9407 302.9823 -9335.6451 -7567.9858 297.1471 -276.5553 -209.1836 30249.7170 -213.5877 -141.4539
ENERGY: 1500000 2.1264 2.0122 1.7217 0.0000 -10823.3526 1443.6696 0.0000 0.0000 1796.1383 -7577.6843 303.5627 -9373.8226 -7573.8761 297.7746 -283.9103 -217.5137 30811.3967 -208.5453 -134.9235
TCL: Running FEP window  10: Lambda1 0.44999999999999996 Lambda2 0.49999999999999994 [dLambda 0.04999999999999999]
TCL: Setting parameter firsttimestep to 0
TCL: Setting parameter alchLambda to 0.44999999999999996
Info: NONBONDED TABLE R-SQUARED SPACING: 0.0625
Info: NONBONDED TABLE SIZE: 705 POINTS
TCL: Setting parameter alchLambda2 to 0.49999999999999994
Info: NONBONDED TABLE R-SQUARED SPACING: 0.0625
Info: NONBONDED TABLE SIZE: 705 POINTS
TCL: Running for 1500000 steps
ETITLE: TS BOND ANGLE DIHED IMPRP ELECT VDW BOUNDARY MISC KINETIC TOTAL TEMP POTENTIAL TOTALAVG TEMPAVG PRESSURE GPRESSURE VOLUME PRESSAVG GPRESSAVG
ENERGY: 0 2.1264 2.0122 1.7217 0.0000 -10823.3522 1444.8873 0.0000 0.0000 1795.2680 -7577.3366 303.4156 -9372.6046 -7577.3366 303.4156 -275.7964 -203.0337 30811.3967 -275.7964 -203.0337
ENERGY: 300000 1.4020 2.4115 1.9575 0.0000 -10973.4040 1520.5053 0.0000 0.0000 1836.4099 -7610.7178 310.3689 -9447.1276 -7569.1170 300.5287 173.0074 173.6328 30663.4910 -196.2360 -153.5968
ENERGY: 600000 0.3856 3.9977 4.4966 0.0000 -10965.5481 1568.0968 0.0000 0.0000 1801.2593 -7587.3120 304.4282 -9388.5713 -7573.1043 300.9186 718.9422 772.1013 30328.1935 -68.9759 -32.7731
ENERGY: 900000 2.8703 1.2403 1.4417 0.0000 -10745.0335 1461.0653 0.0000 0.0000 1775.6145 -7502.8014 300.0940 -9278.4160 -7555.1340 299.7911 203.4710 359.4758 30469.4727 -97.8823 -41.9044
ENERGY: 1200000 3.6436 2.9450 1.3348 0.0000 -10755.0726 1394.3252 0.0000 0.0000 1821.1232 -7531.7008 307.7853 -9352.8240 -7547.9409 300.1487 -500.4309 -430.3225 30425.3614 -141.2606 -84.1436
ENERGY: 1500000 2.6722 1.8205 2.5803 0.0000 -10683.0599 1390.3791 0.0000 0.0000 1728.2943 -7557.3135 292.0965 -9285.6079 -7553.3913 299.4008 -385.5546 -306.9426 30961.1157 -150.3096 -94.3102
TCL: Running FEP window  11: Lambda1 0.49999999999999994 Lambda2 0.5499999999999999 [dLambda 0.04999999999999999]
TCL: Setting parameter firsttimestep to 0
TCL: Setting parameter alchLambda to 0.49999999999999994
Info: NONBONDED TABLE R-SQUARED SPACING: 0.0625
Info: NONBONDED TABLE SIZE: 705 POINTS
TCL: Setting parameter alchLambda2 to 0.5499999999999999
Info: NONBONDED TABLE R-SQUARED SPACING: 0.0625
Info: NONBONDED TABLE SIZE: 705 POINTS
TCL: Running for 1500000 steps
ETITLE: TS BOND ANGLE DIHED IMPRP ELECT VDW BOUNDARY MISC KINETIC TOTAL TEMP POTENTIAL TOTALAVG TEMPAVG PRESSURE GPRESSURE VOLUME PRESSAVG GPRESSAVG
ENERGY: 0 2.6722 1.8205 2.5803 0.0000 -10683.0600 1390.9277 0.0000 0.0000 1727.4211 -7557.6382 291.9489 -9285.0593 -7557.6382 291.9489 -384.6009 -296.0726 30961.1157 -384.6009 -296.0726
ENERGY: 300000 1.4514 2.2085 6.1106 0.0000 -10774.1155 1421.9442 0.0000 0.0000 1845.4880 -7496.9128 311.9032 -9342.4007 -7560.3989 302.4477 -327.6749 -174.1906 30815.2722 52.2174 124.5512
ENERGY: 600000 4.5246 4.2394 3.8499 0.0000 -10839.2408 1474.3192 0.0000 0.0000 1799.3455 -7552.9622 304.1047 -9352.3077 -7557.4326 302.5696 239.2475 249.7698 30425.3170 -0.9151 52.6868
ENERGY: 900000 2.7691 2.9131 5.7505 0.0000 -10660.5453 1374.4146 0.0000 0.0000 1805.7122 -7468.9858 305.1808 -9274.6980 -7541.4283 302.0824 -601.8157 -511.8205 30972.9092 -68.6773 -5.1417
ENERGY: 1200000 3.9299 5.9821 0.5861 0.0000 -10737.8689 1442.9035 0.0000 0.0000 1748.8395 -7535.6278 295.5688 -9284.4673 -7539.4729 301.5971 33.8745 75.4178 30337.5181 -4.3399 58.4902
ENERGY: 1500000 1.3725 3.8584 2.3288 0.0000 -10761.9585 1433.6211 0.0000 0.0000 1781.3087 -7539.4690 301.0564 -9320.7777 -7545.4161 301.5061 149.5739 249.4839 30228.2689 58.2472 118.8716
TCL: Running FEP window  12: Lambda1 0.5499999999999999 Lambda2 0.6    [dLambda 0.050000000000000044]
TCL: Setting parameter firsttimestep to 0
TCL: Setting parameter alchLambda to 0.5499999999999999
Info: NONBONDED TABLE R-SQUARED SPACING: 0.0625
Info: NONBONDED TABLE SIZE: 705 POINTS
TCL: Setting parameter alchLambda2 to 0.6
Info: NONBONDED TABLE R-SQUARED SPACING: 0.0625
Info: NONBONDED TABLE SIZE: 705 POINTS
TCL: Running for 1500000 steps
ETITLE: TS BOND ANGLE DIHED IMPRP ELECT VDW BOUNDARY MISC KINETIC TOTAL TEMP POTENTIAL TOTALAVG TEMPAVG PRESSURE GPRESSURE VOLUME PRESSAVG GPRESSAVG
ENERGY: 0 1.3725 3.8584 2.3288 0.0000 -10761.7432 1433.2087 0.0000 0.0000 1780.4034 -7540.5715 300.9034 -9320.9748 -7540.5715 300.9034 172.3829 252.6450 30228.2689 172.3829 252.6450
ENERGY: 300000 1.6117 3.9007 6.1507 0.0000 -10839.2097 1438.2976 0.0000 0.0000 1781.7783 -7607.4708 301.1357 -9389.2491 -7572.1581 302.3811 -249.4294 -170.0299 30724.9012 -98.0659 5.2979
ENERGY: 600000 1.8132 6.0683 4.9588 0.0000 -10778.3025 1478.7629 0.0000 0.0000 1794.9436 -7491.7556 303.3608 -9286.6992 -7548.0960 302.0051 326.6668 397.1370 30637.1016 97.4667 185.0646
ENERGY: 900000 3.1936 0.7133 2.0090 0.0000 -10921.7722 1590.2039 0.0000 0.0000 1776.3741 -7549.2783 300.2224 -9325.6524 -7562.7213 300.1100 558.2096 670.2871 30804.9016 130.8948 201.7988
ENERGY: 1200000 2.0322 2.2240 2.7580 0.0000 -10714.7253 1440.5224 0.0000 0.0000 1770.8089 -7496.3798 299.2818 -9267.1887 -7563.7105 300.0033 141.1860 185.3501 30731.3031 181.5088 250.7624
ENERGY: 1500000 3.3057 3.0176 3.9098 0.0000 -10621.4273 1352.6198 0.0000 0.0000 1813.0299 -7445.5445 306.4175 -9258.5744 -7561.5247 299.6016 -754.7240 -596.3441 30925.8047 27.9996 102.5721
TCL: Running FEP window  13: Lambda1 0.6    Lambda2 0.65   [dLambda 0.050000000000000044]
TCL: Setting parameter firsttimestep to 0
TCL: Setting parameter alchLambda to 0.6
Info: NONBONDED TABLE R-SQUARED SPACING: 0.0625
Info: NONBONDED TABLE SIZE: 705 POINTS
TCL: Setting parameter alchLambda2 to 0.65
Info: NONBONDED TABLE R-SQUARED SPACING: 0.0625
Info: NONBONDED TABLE SIZE: 705 POINTS
TCL: Running for 1500000 steps
ETITLE: TS BOND ANGLE DIHED IMPRP ELECT VDW BOUNDARY MISC KINETIC TOTAL TEMP POTENTIAL TOTALAVG TEMPAVG PRESSURE GPRESSURE VOLUME PRESSAVG GPRESSAVG
ENERGY: 0 3.3057 3.0176 3.9098 0.0000 -10621.7864 1352.6423 0.0000 0.0000 1812.1757 -7446.7354 306.2731 -9258.9111 -7446.7354 306.2731 -678.4860 -591.9476 30925.8047 -678.4860 -591.9476
ENERGY: 300000 1.1841 2.5743 3.0098 0.0000 -10839.0530 1486.7670 0.0000 0.0000 1799.8513 -7545.6665 304.1902 -9345.5178 -7549.8966 302.2437 238.7945 311.6231 30720.8698 -232.6164 -171.6115
ENERGY: 600000 0.9247 3.1918 3.0719 0.0000 -10737.4114 1408.4050 0.0000 0.0000 1781.1036 -7540.7144 301.0217 -9321.8180 -7543.1323 304.2179 -431.2276 -363.6890 31017.8031 -57.7611 -0.9181
ENERGY: 900000 2.5917 5.3426 5.1708 0.0000 -10811.8603 1404.2759 0.0000 0.0000 1786.4482 -7608.0311 301.9250 -9394.4793 -7531.8728 304.0095 -476.8636 -402.7386 30415.3743 -93.0266 -40.9325
ENERGY: 1200000 1.5046 2.6327 2.2657 0.0000 -10756.6746 1385.1192 0.0000 0.0000 1782.3830 -7582.7693 301.2379 -9365.1522 -7533.4333 303.4780 -457.8915 -465.1175 30548.3469 -90.7731 -41.0133
ENERGY: 1500000 3.6824 2.9056 5.1292 0.0000 -10583.3775 1375.2589 0.0000 0.0000 1826.2916 -7370.1098 308.6589 -9196.4014 -7527.8200 303.4163 -103.6534 -91.3965 30855.5515 -15.0683 35.7680
TCL: Running FEP window  14: Lambda1 0.65   Lambda2 0.7000000000000001 [dLambda 0.050000000000000044]
TCL: Setting parameter firsttimestep to 0
TCL: Setting parameter alchLambda to 0.65
Info: NONBONDED TABLE R-SQUARED SPACING: 0.0625
Info: NONBONDED TABLE SIZE: 705 POINTS
TCL: Setting parameter alchLambda2 to 0.7000000000000001
Info: NONBONDED TABLE R-SQUARED SPACING: 0.0625
Info: NONBONDED TABLE SIZE: 705 POINTS
TCL: Running for 1500000 steps
ETITLE: TS BOND ANGLE DIHED IMPRP ELECT VDW BOUNDARY MISC KINETIC TOTAL TEMP POTENTIAL TOTALAVG TEMPAVG PRESSURE GPRESSURE VOLUME PRESSAVG GPRESSAVG
ENERGY: 0 3.6824 2.9056 5.1292 0.0000 -10583.5990 1374.9408 0.0000 0.0000 1825.3815 -7371.5594 308.5050 -9196.9409 -7371.5594 308.5050 -157.2923 -85.1315 30855.5515 -157.2923 -85.1315
ENERGY: 300000 2.5250 3.8030 5.0623 0.0000 -10800.4948 1446.4392 0.0000 0.0000 1799.9961 -7542.6691 304.2147 -9342.6652 -7534.4257 302.0932 -243.7708 -182.8141 30895.6971 -370.0086 -319.7576
ENERGY: 600000 4.7427 5.7298 4.9796 0.0000 -10760.2256 1441.9353 0.0000 0.0000 1803.8230 -7499.0153 304.8615 -9302.8383 -7535.0276 301.6032 -61.3765 13.1935 30678.6286 -74.6808 -26.6812
ENERGY: 900000 1.8919 1.4717 2.1070 0.0000 -10736.1513 1430.6067 0.0000 0.0000 1783.6948 -7516.3792 301.4596 -9300.0740 -7533.4548 301.0436 114.3349 203.3878 30277.7854 6.9710 68.6872
ENERGY: 1200000 1.4276 2.6842 3.6215 0.0000 -10904.0471 1523.3192 0.0000 0.0000 1802.1916 -7570.8031 304.5857 -9372.9946 -7547.1672 300.9893 461.2537 515.4017 30663.4649 -29.2135 42.4045
ENERGY: 1500000 2.1898 3.0796 2.8477 0.0000 -10725.2718 1492.5176 0.0000 0.0000 1810.7297 -7413.9074 306.0288 -9224.6371 -7535.3084 301.8590 433.8539 525.6410 31237.3667 -40.0029 34.0550
TCL: Running FEP window  15: Lambda1 0.7000000000000001 Lambda2 0.7500000000000001 [dLambda 0.050000000000000044]
TCL: Setting parameter firsttimestep to 0
TCL: Setting parameter alchLambda to 0.7000000000000001
Info: NONBONDED TABLE R-SQUARED SPACING: 0.0625
Info: NONBONDED TABLE SIZE: 705 POINTS
TCL: Setting parameter alchLambda2 to 0.7500000000000001
Info: NONBONDED TABLE R-SQUARED SPACING: 0.0625
Info: NONBONDED TABLE SIZE: 705 POINTS
TCL: Running for 1500000 steps
ETITLE: TS BOND ANGLE DIHED IMPRP ELECT VDW BOUNDARY MISC KINETIC TOTAL TEMP POTENTIAL TOTALAVG TEMPAVG PRESSURE GPRESSURE VOLUME PRESSAVG GPRESSAVG
ENERGY: 0 2.1898 3.0796 2.8477 0.0000 -10727.0028 1493.5449 0.0000 0.0000 1809.8691 -7415.4717 305.8833 -9225.3408 -7415.4717 305.8833 465.3917 539.6182 31237.3667 465.3917 539.6182
ENERGY: 300000 2.4502 2.2670 3.9914 0.0000 -10931.1878 1510.5719 0.0000 0.0000 1786.3956 -7625.5117 301.9161 -9411.9073 -7549.2031 303.0662 591.6740 595.1212 30030.3289 257.5201 295.8031
ENERGY: 600000 4.5032 2.0962 1.3130 0.0000 -10692.1461 1368.7823 0.0000 0.0000 1740.5765 -7574.8749 294.1723 -9315.4514 -7541.1954 301.3032 -810.3419 -747.7743 30994.6086 -10.7980 46.6264
ENERGY: 900000 1.8187 1.6855 2.3913 0.0000 -10743.6988 1392.0023 0.0000 0.0000 1744.1157 -7601.6853 294.7704 -9345.8010 -7551.7524 300.8569 -679.2019 -607.5485 30739.0542 -29.4647 34.3534
ENERGY: 1200000 1.4418 4.3920 6.0431 0.0000 -10673.8148 1352.2939 0.0000 0.0000 1793.3898 -7516.2542 303.0982 -9309.6440 -7555.8443 300.4036 -554.5862 -497.2713 30510.4459 -53.9772 12.1944
ENERGY: 1500000 2.9383 2.9270 3.6633 0.0000 -10921.1871 1553.6610 0.0000 0.0000 1788.0010 -7569.9967 302.1874 -9357.9976 -7554.5352 300.8015 745.5711 796.0017 30649.0805 45.2803 108.7811
TCL: Running FEP window  16: Lambda1 0.7500000000000001 Lambda2 0.8000000000000002 [dLambda 0.050000000000000044]
TCL: Setting parameter firsttimestep to 0
TCL: Setting parameter alchLambda to 0.7500000000000001
Info: NONBONDED TABLE R-SQUARED SPACING: 0.0625
Info: NONBONDED TABLE SIZE: 705 POINTS
TCL: Setting parameter alchLambda2 to 0.8000000000000002
Info: NONBONDED TABLE R-SQUARED SPACING: 0.0625
Info: NONBONDED TABLE SIZE: 705 POINTS
TCL: Running for 1500000 steps
ETITLE: TS BOND ANGLE DIHED IMPRP ELECT VDW BOUNDARY MISC KINETIC TOTAL TEMP POTENTIAL TOTALAVG TEMPAVG PRESSURE GPRESSURE VOLUME PRESSAVG GPRESSAVG
ENERGY: 0 2.9383 2.9270 3.6633 0.0000 -10922.7689 1555.3167 0.0000 0.0000 1787.0786 -7570.8451 302.0315 -9357.9237 -7570.8451 302.0315 727.5517 817.9023 30649.0805 727.5517 817.9023
ENERGY: 300000 1.9759 2.9456 3.5300 0.0000 -10802.9406 1397.8651 0.0000 0.0000 1792.9761 -7603.6478 303.0282 -9396.6239 -7611.3082 298.4064 -597.8919 -550.4473 30536.5167 1.2141 67.5859
ENERGY: 600000 0.7161 3.6282 4.0202 0.0000 -10816.3575 1463.9227 0.0000 0.0000 1763.4715 -7580.5989 298.0417 -9344.0704 -7597.8792 298.1814 154.3818 213.6153 30318.2546 -13.2433 38.3528
ENERGY: 900000 1.2766 3.5199 2.7717 0.0000 -10826.1555 1428.1506 0.0000 0.0000 1792.6540 -7597.7827 302.9738 -9390.4367 -7598.4702 298.1826 -245.6691 -126.8247 30449.8760 3.3943 61.0406
ENERGY: 1200000 1.2492 2.6140 3.2628 0.0000 -10924.2605 1468.3821 0.0000 0.0000 1760.9234 -7687.8289 297.6111 -9448.7523 -7600.2968 299.1682 -0.4676 49.6512 30453.3635 2.3699 60.9526
ENERGY: 1500000 4.2490 1.7324 2.5661 0.0000 -10900.8521 1495.6228 0.0000 0.0000 1726.8419 -7669.8399 291.8510 -9396.6818 -7603.6755 298.1170 -75.6398 -60.3721 30994.9688 -14.7634 40.0060
TCL: Running FEP window  17: Lambda1 0.8000000000000002 Lambda2 0.8500000000000002 [dLambda 0.050000000000000044]
TCL: Setting parameter firsttimestep to 0
TCL: Setting parameter alchLambda to 0.8000000000000002
Info: NONBONDED TABLE R-SQUARED SPACING: 0.0625
Info: NONBONDED TABLE SIZE: 705 POINTS
TCL: Setting parameter alchLambda2 to 0.8500000000000002
Info: NONBONDED TABLE R-SQUARED SPACING: 0.0625
Info: NONBONDED TABLE SIZE: 705 POINTS
TCL: Running for 1500000 steps
ETITLE: TS BOND ANGLE DIHED IMPRP ELECT VDW BOUNDARY MISC KINETIC TOTAL TEMP POTENTIAL TOTALAVG TEMPAVG PRESSURE GPRESSURE VOLUME PRESSAVG GPRESSAVG
ENERGY: 0 4.2491 1.7324 2.5661 0.0000 -10902.3553 1495.4441 0.0000 0.0000 1725.9361 -7672.4276 291.6979 -9398.3637 -7672.4276 291.6979 -130.5424 -58.6066 30994.9688 -130.5424 -58.6066
ENERGY: 300000 3.0364 3.0179 5.0284 0.0000 -10774.8793 1395.2277 0.0000 0.0000 1735.6593 -7632.9096 293.3412 -9368.5690 -7633.9544 295.5241 -531.6513 -471.0159 30644.9452 -238.5616 -179.8806
ENERGY: 600000 1.3845 1.5738 1.1124 0.0000 -10896.7261 1505.7604 0.0000 0.0000 1808.9982 -7577.8967 305.7361 -9386.8949 -7630.3429 296.2442 585.9540 611.5351 30187.4689 24.3110 91.1607
ENERGY: 900000 0.6310 5.0072 2.2620 0.0000 -10656.4593 1443.9296 0.0000 0.0000 1756.4396 -7448.1899 296.8533 -9204.6295 -7603.5472 298.0317 675.7762 766.2273 29869.5275 43.8974 103.7889
ENERGY: 1200000 2.9661 3.5136 3.1559 0.0000 -10777.1951 1482.7932 0.0000 0.0000 1842.4659 -7442.3003 311.3924 -9284.7662 -7586.0594 299.7996 587.5596 654.2337 30452.2182 150.7368 210.4148
ENERGY: 1500000 2.2357 2.1480 4.7849 0.0000 -10817.4978 1528.3874 0.0000 0.0000 1821.4800 -7458.4619 307.8456 -9279.9419 -7580.9631 300.0174 850.6311 966.0725 30519.6027 91.6023 155.0825
TCL: Running FEP window  18: Lambda1 0.8500000000000002 Lambda2 0.9000000000000002 [dLambda 0.050000000000000044]
TCL: Setting parameter firsttimestep to 0
TCL: Setting parameter alchLambda to 0.8500000000000002
Info: NONBONDED TABLE R-SQUARED SPACING: 0.0625
Info: NONBONDED TABLE SIZE: 705 POINTS
TCL: Setting parameter alchLambda2 to 0.9000000000000002
Info: NONBONDED TABLE R-SQUARED SPACING: 0.0625
Info: NONBONDED TABLE SIZE: 705 POINTS
TCL: Running for 1500000 steps
ETITLE: TS BOND ANGLE DIHED IMPRP ELECT VDW BOUNDARY MISC KINETIC TOTAL TEMP POTENTIAL TOTALAVG TEMPAVG PRESSURE GPRESSURE VOLUME PRESSAVG GPRESSAVG
ENERGY: 0 2.2357 2.1480 4.7849 0.0000 -10818.3874 1528.1702 0.0000 0.0000 1820.5925 -7460.4561 307.6957 -9281.0486 -7460.4561 307.6957 898.3248 967.7248 30519.6027 898.3248 967.7248
ENERGY: 300000 1.8858 2.5646 2.9312 0.0000 -10787.7785 1482.2679 0.0000 0.0000 1815.6324 -7482.4965 306.8574 -9298.1289 -7476.6958 303.9167 -1.8554 82.0390 31080.2533 72.2995 116.6900
ENERGY: 600000 3.3977 1.6168 2.2398 0.0000 -10677.6765 1379.3504 0.0000 0.0000 1758.5560 -7532.5158 297.2110 -9291.0718 -7522.2988 302.9022 -441.8430 -325.0912 30643.5714 -263.8825 -204.2572
ENERGY: 900000 2.6584 5.2142 4.8814 0.0000 -10857.2438 1485.2771 0.0000 0.0000 1768.2981 -7590.9146 298.8575 -9359.2127 -7545.4095 302.9560 285.5784 312.3366 30481.6570 -134.8871 -72.9957
ENERGY: 1200000 1.8868 4.0315 3.0583 0.0000 -10772.7256 1477.3982 0.0000 0.0000 1744.6883 -7541.6625 294.8672 -9286.3508 -7548.1608 302.0744 71.0311 103.5320 31146.0914 -177.9734 -123.9726
ENERGY: 1500000 2.9507 2.5509 3.5735 0.0000 -10716.0188 1427.8691 0.0000 0.0000 1739.4662 -7539.6083 293.9846 -9279.0746 -7547.7806 301.5478 -11.0613 84.4749 30655.0170 -179.2188 -119.6510
TCL: Running FEP window  19: Lambda1 0.9000000000000002 Lambda2 0.9500000000000003 [dLambda 0.050000000000000044]
TCL: Setting parameter firsttimestep to 0
TCL: Setting parameter alchLambda to 0.9000000000000002
Info: NONBONDED TABLE R-SQUARED SPACING: 0.0625
Info: NONBONDED TABLE SIZE: 705 POINTS
TCL: Setting parameter alchLambda2 to 0.9500000000000003
Info: NONBONDED TABLE R-SQUARED SPACING: 0.0625
Info: NONBONDED TABLE SIZE: 705 POINTS
TCL: Running for 1500000 steps
ETITLE: TS BOND ANGLE DIHED IMPRP ELECT VDW BOUNDARY MISC KINETIC TOTAL TEMP POTENTIAL TOTALAVG TEMPAVG PRESSURE GPRESSURE VOLUME PRESSAVG GPRESSAVG
ENERGY: 0 2.9507 2.5509 3.5735 0.0000 -10718.2789 1429.3289 0.0000 0.0000 1738.6192 -7541.2558 293.8415 -9279.8750 -7541.2558 293.8415 9.1846 103.3536 30655.0170 9.1846 103.3536
ENERGY: 300000 3.1773 0.5952 3.8153 0.0000 -10923.5834 1547.0804 0.0000 0.0000 1790.9284 -7577.9867 302.6822 -9368.9152 -7534.6348 299.0059 646.3541 697.8427 30602.7311 111.0422 187.8570
ENERGY: 600000 1.3239 2.1492 2.2664 0.0000 -10816.0496 1457.0436 0.0000 0.0000 1755.6278 -7597.6387 296.7161 -9353.2665 -7555.5660 298.4783 -7.3159 13.6815 30596.8513 -84.6842 -22.3699
ENERGY: 900000 2.9525 5.3151 3.9313 0.0000 -10834.2981 1499.5361 0.0000 0.0000 1766.4148 -7556.1483 298.5392 -9322.5631 -7557.7852 298.7892 347.5872 357.3926 30669.7113 111.6284 168.1578
ENERGY: 1200000 1.7523 2.4565 4.3495 0.0000 -10894.2180 1523.1367 0.0000 0.0000 1774.2360 -7588.2870 299.8610 -9362.5230 -7550.6641 299.3061 307.4818 407.0995 30902.1105 130.5091 188.9839
ENERGY: 1500000 0.9878 2.1692 5.9711 0.0000 -10829.7152 1401.2239 0.0000 0.0000 1760.6913 -7658.6719 297.5719 -9419.3632 -7548.7830 299.3922 -769.1071 -692.8861 30876.3931 77.1595 143.0988
TCL: Running FEP window  20: Lambda1 0.9500000000000003 Lambda2 1.0    [dLambda 0.04999999999999971]
TCL: Setting parameter firsttimestep to 0
TCL: Setting parameter alchLambda to 0.9500000000000003
Info: NONBONDED TABLE R-SQUARED SPACING: 0.0625
Info: NONBONDED TABLE SIZE: 705 POINTS
TCL: Setting parameter alchLambda2 to 1.0
Info: NONBONDED TABLE R-SQUARED SPACING: 0.0625
Info: NONBONDED TABLE SIZE: 705 POINTS
TCL: Running for 1500000 steps
ETITLE: TS BOND ANGLE DIHED IMPRP ELECT VDW BOUNDARY MISC KINETIC TOTAL TEMP POTENTIAL TOTALAVG TEMPAVG PRESSURE GPRESSURE VOLUME PRESSAVG GPRESSAVG
ENERGY: 0 0.9878 2.1692 5.9711 0.0000 -10830.9878 1401.9405 0.0000 0.0000 1759.7993 -7660.1200 297.4211 -9419.9193 -7660.1200 297.4211 -752.8095 -679.9375 30876.3931 -752.8095 -679.9375
ENERGY: 300000 2.1166 3.0384 1.8290 0.0000 -10735.4651 1408.5525 0.0000 0.0000 1747.4740 -7572.4547 295.3380 -9319.9287 -7605.0023 298.3775 -129.1705 -162.3092 30541.3422 -365.9552 -349.2131
ENERGY: 600000 1.5069 1.8798 4.0130 0.0000 -10695.5311 1416.9218 0.0000 0.0000 1798.1645 -7473.0450 303.9051 -9271.2095 -7592.9706 299.4567 -369.9665 -331.1284 31419.5185 -252.8085 -230.5604
ENERGY: 900000 1.3146 2.5244 2.5441 0.0000 -10849.0615 1456.8223 0.0000 0.0000 1773.0238 -7612.8323 299.6561 -9385.8561 -7594.3605 300.0036 -112.6389 -47.8684 30689.2334 -240.5263 -205.8054
ENERGY: 1200000 2.2086 3.0060 3.5308 0.0000 -10707.1946 1408.1567 0.0000 0.0000 1770.5051 -7519.7874 299.2305 -9290.2924 -7586.4534 299.8074 -297.7626 -221.9861 30741.3346 -264.9920 -222.2548
ENERGY: 1500000 1.1186 5.2646 3.0900 0.0000 -10719.0021 1408.3802 0.0000 0.0000 1724.7249 -7576.4238 291.4932 -9301.1487 -7579.6548 300.1139 -206.0229 -102.8609 30850.4142 -185.4408 -134.7951
TCL: Exiting due to exit command.
