Info: SIMULATION PARAMETERS:
Info: TIMESTEP               2
Info: NUMBER OF STEPS        0
Info: STEPS PER CYCLE        10
Info: PERIODIC CELL BASIS 1  30.8718 0 0
Info: PERIODIC CELL BASIS 2  0 31.5715 0
Info: PERIODIC CELL BASIS 3  0 0 31.5221
Info: PERIODIC CELL CENTER   0 0 0
Info: WRAPPING WATERS AROUND PERIODIC BOUNDARIES ON OUTPUT.
Info: WRAPPING ALL CLUSTERS AROUND PERIODIC BOUNDARIES ON OUTPUT.
Info: FIRST LDB TIMESTEP     50
Info: LAST LDB TIMESTEP     -1
Info: HOM BACKGROUND SCALING 1
Info: PME BACKGROUND SCALING 1
Info: MIN ATOMS PER PATCH    40
Info: EMPTY PATCH LOAD       40 ATOMS
Info: VELOCITY FILE          mobley_1231151_equil.vel
Info: CENTER OF MASS MOVING INITIALLY? NO
Info: DIELECTRIC             1
Info: EXCLUDE                SCALED ONE-FOUR
Info: 1-4 ELECTROSTATICS SCALED BY 0.833333
Info: MODIFIED 1-4 VDW PARAMETERS WILL BE USED
Info: DCD FILENAME           mobley_1231151_prod.dcd
Info: DCD FREQUENCY          100000
Info: DCD FIRST STEP         100000
Info: DCD FILE WILL CONTAIN UNIT CELL DATA
Info: XST FILENAME           mobley_1231151_prod.xst
Info: XST FREQUENCY          100000
Info: NO VELOCITY DCD OUTPUT
Info: NO FORCE DCD OUTPUT
Info: OUTPUT FILENAME        mobley_1231151_prod
Info: BINARY OUTPUT FILES WILL BE USED
Info: RESTART FILENAME       mobley_1231151_prod.restart
Info: RESTART FREQUENCY      100000
Info: BINARY RESTART FILES WILL BE USED
Info: CUTOFF                 9
Info: PAIRLIST DISTANCE      11
Info: PAIRLIST SHRINK RATE   0.01
Info: PAIRLIST GROW RATE     0.01
Info: PAIRLIST TRIGGER       0.3
Info: PAIRLISTS PER CYCLE    2
Info: PAIRLISTS ENABLED
Info: MARGIN                 2
Info: HYDROGEN GROUP CUTOFF  2.5
Info: PATCH DIMENSION        15.5
Info: ENERGY OUTPUT STEPS    100000
Info: ENERGY EVALUATION STEPS    100000
Info: OUTPUT ENERGY PRECISION 4
Info: CROSSTERM ENERGY INCLUDED IN DIHEDRAL
Info: TIMING OUTPUT STEPS    1000000
Info: PRESSURE OUTPUT STEPS  100000
Info: ALCHEMICAL FEP ON
Info: FEP CURRENT LAMBDA VALUE     1
Info: FEP COMPARISON LAMBDA VALUE  0.95
Info: FEP INTRA-ALCHEMICAL NON-BONDED INTERACTIONS WILL BE RETAINED
Info: FEP INTRA-ALCHEMICAL BONDED INTERACTIONS WILL BE RETAINED
Info: FEP VDW SHIFTING COEFFICIENT 5
Info: FEP ELEC. ACTIVE FOR ANNIHILATED PARTICLES BETWEEN LAMBDA = 0 AND LAMBDA = 0.5
Info: FEP ELEC. ACTIVE FOR EXNIHILATED PARTICLES BETWEEN LAMBDA = 0.5 AND LAMBDA = 1
Info: FEP VDW ACTIVE FOR ANNIHILATED PARTICLES BETWEEN LAMBDA = 0 AND LAMBDA = 1
Info: FEP VDW ACTIVE FOR EXNIHILATED PARTICLES BETWEEN LAMBDA = 0 AND LAMBDA = 1
Info: FEP BOND ACTIVE FOR ANNIHILATED PARTICLES BETWEEN LAMBDA = 1 AND LAMBDA = 1
Info: FEP BOND ACTIVE FOR EXNIHILATED PARTICLES BETWEEN LAMBDA = 0 AND LAMBDA = 0
Info: LANGEVIN DYNAMICS ACTIVE
Info: LANGEVIN TEMPERATURE   300
Info: LANGEVIN USING BBK INTEGRATOR
Info: LANGEVIN DAMPING COEFFICIENT IS 1 INVERSE PS
Info: LANGEVIN DYNAMICS APPLIED TO HYDROGENS
Info: LANGEVIN PISTON PRESSURE CONTROL ACTIVE
Info:        TARGET PRESSURE IS 1.01325 BAR
Info:     OSCILLATION PERIOD IS 50 FS
Info:             DECAY TIME IS 25 FS
Info:     PISTON TEMPERATURE IS 300 K
Info:       PRESSURE CONTROL IS GROUP-BASED
Info:    INITIAL STRAIN RATE IS -0.000256472 -0.000256472 -0.000256472
Info:       CELL FLUCTUATION IS ISOTROPIC
Info: PARTICLE MESH EWALD (PME) ACTIVE
Info: PME TOLERANCE               1e-06
Info: PME EWALD COEFFICIENT       0.348832
Info: PME INTERPOLATION ORDER     4
Info: PME GRID DIMENSIONS         32 32 32
Info: PME MAXIMUM GRID SPACING    1
Info: PME CALCULATION WILL BE PERFORMED ON GPU
Info: FULL ELECTROSTATIC EVALUATION FREQUENCY      2
Info: USING VERLET I (r-RESPA) MTS SCHEME.
Info: C1 SPLITTING OF LONG RANGE ELECTROSTATICS
Info: PLACING ATOMS IN PATCHES BY HYDROGEN GROUPS
Info: RIGID BONDS TO HYDROGEN : ALL
Info:         ERROR TOLERANCE : 1e-08
Info:          MAX ITERATIONS : 100
Info: RIGID WATER USING SETTLE ALGORITHM
Info: RANDOM NUMBER SEED     1742542234
Info: USE HYDROGEN BONDS?    NO
Info: Using AMBER format force field!
Info: AMBER PARM FILE        mobley_1231151.prmtop
Info: COORDINATE PDB         mobley_1231151.pdb
Info: Exclusions will be read from PARM file!
Info: SCNB (VDW SCALING)     2
Info: USING ARITHMETIC MEAN TO COMBINE L-J SIGMA PARAMETERS
Info: BINARY COORDINATES     mobley_1231151_equil.coor
Info: SUMMARY OF PARAMETERS:
Info: 6 BONDS
Info: 6 ANGLES
Info:   6 HARMONIC
Info:   0 COSINE-BASED
Info: 3 DIHEDRAL
Info: 0 IMPROPER
Info: 0 CROSSTERM
Info: 0 VDW
Info: 21 VDW_PAIRS
Info: 0 NBTHOLE_PAIRS
Info: To read alchdata from file: mobley_1231151.pdb
Info: To read alchflag data from column: 5
Info: STRUCTURE SUMMARY:
Info: 2999 ATOMS
Info: 2998 BONDS
Info: 18 ANGLES
Info: 18 DIHEDRALS
Info: 0 IMPROPERS
Info: 0 CROSSTERMS
Info: 3034 EXCLUSIONS
Info: 2995 RIGID BONDS
Info: ALCH: 0 ATOMS TO DISAPPEAR IN FINAL STATE
Info: ALCH: 11 ATOMS TO APPEAR IN FINAL STATE
Info: 6002 DEGREES OF FREEDOM
Info: 1000 HYDROGEN GROUPS
Info: 4 ATOMS IN LARGEST HYDROGEN GROUP
Info: 1000 MIGRATION GROUPS
Info: 4 ATOMS IN LARGEST MIGRATION GROUP
Info: TOTAL MASS = 18022.5 amu
Info: TOTAL CHARGE = 0.000199996 e
Info: MASS DENSITY = 0.974092 g/cm^3
Info: ATOM DENSITY = 0.0976119 atoms/A^3
Info: ADDED 0 IMPLICIT EXCLUSIONS
Info: NONBONDED TABLE R-SQUARED SPACING: 0.0625
Info: NONBONDED TABLE SIZE: 705 POINTS
Info: REMOVING COM VELOCITY 0.0513766 0.141917 -0.275649
Info: Use 3D box decompostion in PME FFT.
Info: Updated CUDA force table with 4096 elements.
Info: Updated CUDA LJ table with 6 x 6 elements.
Info: Found 14 unique exclusion lists needing 24 bytes
TCL: Running for 1500000 steps
ETITLE: TS BOND ANGLE DIHED IMPRP ELECT VDW BOUNDARY MISC KINETIC TOTAL TEMP POTENTIAL TOTALAVG TEMPAVG PRESSURE GPRESSURE VOLUME PRESSAVG GPRESSAVG
ENERGY: 0 0.2126 9.8921 0.1988 0.0000 -11056.5599 1561.9619 0.0000 0.0000 1808.9351 -7675.3595 303.3314 -9484.2946 -7675.3595 303.3314 555.9613 638.7413 30723.7011 555.9613 638.7413
ENERGY: 300000 1.1891 5.1838 0.9473 0.0000 -10948.1850 1442.5129 0.0000 0.0000 1731.1199 -7767.2319 290.2830 -9498.3519 -7683.3341 299.5387 -372.2005 -249.4890 30530.3632 -50.6029 55.5616
ENERGY: 600000 2.2212 4.9833 0.4029 0.0000 -10666.6544 1342.0029 0.0000 0.0000 1809.6696 -7507.3745 303.4546 -9317.0441 -7635.4807 301.1289 -984.5723 -943.0268 31974.0772 -220.0134 -137.7656
ENERGY: 900000 0.9199 5.7549 0.4304 0.0000 -10737.7097 1405.2197 0.0000 0.0000 1807.7820 -7517.6027 303.1380 -9325.3847 -7626.1345 300.5072 -356.4478 -249.5487 31355.0844 -252.5520 -173.9644
ENERGY: 1200000 0.4403 4.4776 0.4363 0.0000 -10869.3099 1460.4164 0.0000 0.0000 1739.7056 -7663.8336 291.7227 -9403.5392 -7627.5187 299.4068 -10.2514 77.2411 30848.0646 -202.5620 -126.9843
ENERGY: 1500000 5.3527 9.9106 0.5626 0.0000 -10931.3362 1458.5416 0.0000 0.0000 1829.7577 -7627.2110 306.8231 -9456.9688 -7625.5816 299.3382 -147.8459 -118.6339 30792.2563 -232.2952 -165.0820
TCL: Running FEP window   2: Lambda1 0.95   Lambda2 0.8999999999999999 [dLambda -0.050000000000000044]
TCL: Setting parameter firsttimestep to 0
TCL: Setting parameter alchLambda to 0.95
Info: NONBONDED TABLE R-SQUARED SPACING: 0.0625
Info: NONBONDED TABLE SIZE: 705 POINTS
TCL: Setting parameter alchLambda2 to 0.8999999999999999
Info: NONBONDED TABLE R-SQUARED SPACING: 0.0625
Info: NONBONDED TABLE SIZE: 705 POINTS
TCL: Running for 1500000 steps
ETITLE: TS BOND ANGLE DIHED IMPRP ELECT VDW BOUNDARY MISC KINETIC TOTAL TEMP POTENTIAL TOTALAVG TEMPAVG PRESSURE GPRESSURE VOLUME PRESSAVG GPRESSAVG
ENERGY: 0 5.3527 9.9106 0.5626 0.0000 -10931.1464 1458.7148 0.0000 0.0000 1828.8152 -7627.7904 306.6650 -9456.6057 -7627.7904 306.6650 -207.3234 -127.9975 30792.2563 -207.3234 -127.9975
ENERGY: 300000 0.3778 5.5978 1.1476 0.0000 -10951.5253 1489.7908 0.0000 0.0000 1803.5169 -7651.0944 302.4229 -9454.6113 -7637.5814 302.1651 209.2178 327.8788 30667.4266 217.4389 309.7971
ENERGY: 600000 1.5656 5.0874 0.2679 0.0000 -10963.7137 1557.2288 0.0000 0.0000 1758.3746 -7641.1894 294.8532 -9399.5639 -7655.7581 299.4679 678.6079 796.8574 30684.2554 259.6263 350.6491
ENERGY: 900000 2.7150 7.0149 0.3311 0.0000 -10800.0179 1391.6400 0.0000 0.0000 1777.2929 -7621.0240 298.0255 -9398.3169 -7638.7564 300.0933 -389.0170 -348.0792 30636.6935 123.5591 203.6953
ENERGY: 1200000 0.2553 2.3887 2.4447 0.0000 -10991.3999 1547.1195 0.0000 0.0000 1827.0593 -7612.1324 306.3706 -9439.1917 -7630.2112 301.0756 795.1380 878.8766 30444.6596 229.7672 311.1694
ENERGY: 1500000 0.6310 3.8623 0.3871 0.0000 -10889.6129 1483.5335 0.0000 0.0000 1752.1270 -7649.0721 293.8055 -9401.1990 -7623.4960 300.9917 360.3175 418.4814 30563.9040 168.3714 245.6473
TCL: Running FEP window   3: Lambda1 0.8999999999999999 Lambda2 0.8499999999999999 [dLambda -0.050000000000000044]
TCL: Setting parameter firsttimestep to 0
TCL: Setting parameter alchLambda to 0.8999999999999999
Info: NONBONDED TABLE R-SQUARED SPACING: 0.0625
Info: NONBONDED TABLE SIZE: 705 POINTS
TCL: Setting parameter alchLambda2 to 0.8499999999999999
Info: NONBONDED TABLE R-SQUARED SPACING: 0.0625
Info: NONBONDED TABLE SIZE: 705 POINTS
TCL: Running for 1500000 steps
ETITLE: TS BOND ANGLE DIHED IMPRP ELECT VDW BOUNDARY MISC KINETIC TOTAL TEMP POTENTIAL TOTALAVG TEMPAVG PRESSURE GPRESSURE VOLUME PRESSAVG GPRESSAVG
ENERGY: 0 0.6310 3.8623 0.3871 0.0000 -10889.6313 1483.7839 0.0000 0.0000 1751.2377 -7649.7293 293.6564 -9400.9670 -7649.7293 293.6564 337.7081 412.9399 30563.9040 337.7081 412.9399
ENERGY: 300000 0.8703 3.7395 0.1114 0.0000 -10760.0517 1342.0847 0.0000 0.0000 1757.9389 -7655.3069 294.7801 -9413.2458 -7604.6075 298.8719 -881.0700 -835.0574 31091.1499 -220.4648 -143.6805
ENERGY: 600000 0.7387 3.4988 0.2834 0.0000 -10992.8524 1516.1427 0.0000 0.0000 1779.0077 -7693.1812 298.3130 -9472.1889 -7621.1392 298.8549 43.2156 143.5487 31109.1714 -54.5035 13.3420
ENERGY: 900000 0.6031 5.0710 0.1253 0.0000 -10775.4041 1427.8042 0.0000 0.0000 1762.7551 -7579.0455 295.5877 -9341.8006 -7625.6301 297.7450 -261.4399 -195.1650 31227.0663 -155.8196 -84.9564
ENERGY: 1200000 0.2554 3.0950 0.4374 0.0000 -10801.9021 1486.1724 0.0000 0.0000 1724.4003 -7587.5416 289.1562 -9311.9420 -7627.5468 297.6775 219.5949 337.0951 31038.1087 -93.7611 -26.6863
ENERGY: 1500000 0.2763 2.3949 0.1760 0.0000 -10954.6548 1467.1777 0.0000 0.0000 1826.5826 -7658.0473 306.2906 -9484.6299 -7623.9258 298.9632 -128.2906 -78.1044 30790.6476 -54.9419 12.3803
TCL: Running FEP window   4: Lambda1 0.8499999999999999 Lambda2 0.7999999999999998 [dLambda -0.050000000000000044]
TCL: Setting parameter firsttimestep to 0
TCL: Setting parameter alchLambda to 0.8499999999999999
Info: NONBONDED TABLE R-SQUARED SPACING: 0.0625
Info: NONBONDED TABLE SIZE: 705 POINTS
TCL: Setting parameter alchLambda2 to 0.7999999999999998
Info: NONBONDED TABLE R-SQUARED SPACING: 0.0625
Info: NONBONDED TABLE SIZE: 705 POINTS
TCL: Running for 1500000 steps
ETITLE: TS BOND ANGLE DIHED IMPRP ELECT VDW BOUNDARY MISC KINETIC TOTAL TEMP POTENTIAL TOTALAVG TEMPAVG PRESSURE GPRESSURE VOLUME PRESSAVG GPRESSAVG
ENERGY: 0 0.2763 2.3949 0.1760 0.0000 -10954.3957 1467.0450 0.0000 0.0000 1825.6869 -7658.8165 306.1404 -9484.5034 -7658.8165 306.1404 -165.9983 -90.0362 30790.6476 -165.9983 -90.0362
ENERGY: 300000 0.8152 5.5643 0.1997 0.0000 -10932.5289 1481.2925 0.0000 0.0000 1763.5011 -7681.1562 295.7128 -9444.6572 -7638.1655 300.3536 110.7199 187.9870 30695.7178 83.9187 152.2547
ENERGY: 600000 1.0454 5.3663 0.1983 0.0000 -10876.4944 1455.1259 0.0000 0.0000 1818.7901 -7595.9686 304.9839 -9414.7586 -7620.9377 300.8397 -268.8017 -166.4585 31094.2593 95.3472 163.6576
ENERGY: 900000 0.8266 2.7945 0.3548 0.0000 -10867.3911 1498.1913 0.0000 0.0000 1785.5761 -7579.6479 299.4144 -9365.2239 -7612.5244 299.9052 596.5793 647.1165 30473.1559 66.5798 133.3464
ENERGY: 1200000 0.5185 4.4693 1.5633 0.0000 -10765.9122 1406.5369 0.0000 0.0000 1778.9739 -7573.8503 298.3074 -9352.8242 -7609.3529 300.5688 -330.1311 -257.9796 30974.6611 34.4322 107.0745
ENERGY: 1500000 0.4176 7.6957 0.5602 0.0000 -10989.4807 1521.9652 0.0000 0.0000 1814.1581 -7644.6839 304.2072 -9458.8420 -7609.4804 301.3253 247.4815 354.4932 31004.9987 -34.1580 39.8861
TCL: Running FEP window   5: Lambda1 0.7999999999999998 Lambda2 0.7499999999999998 [dLambda -0.050000000000000044]
TCL: Setting parameter firsttimestep to 0
TCL: Setting parameter alchLambda to 0.7999999999999998
Info: NONBONDED TABLE R-SQUARED SPACING: 0.0625
Info: NONBONDED TABLE SIZE: 705 POINTS
TCL: Setting parameter alchLambda2 to 0.7499999999999998
Info: NONBONDED TABLE R-SQUARED SPACING: 0.0625
Info: NONBONDED TABLE SIZE: 705 POINTS
TCL: Running for 1500000 steps
ETITLE: TS BOND ANGLE DIHED IMPRP ELECT VDW BOUNDARY MISC KINETIC TOTAL TEMP POTENTIAL TOTALAVG TEMPAVG PRESSURE GPRESSURE VOLUME PRESSAVG GPRESSAVG
ENERGY: 0 0.4176 7.6957 0.5602 0.0000 -10989.0453 1521.5669 0.0000 0.0000 1813.2883 -7645.5166 304.0614 -9458.8049 -7645.5166 304.0614 246.4969 336.9900 31004.9987 246.4969 336.9900
ENERGY: 300000 1.4568 4.4915 0.1839 0.0000 -10865.7430 1491.0077 0.0000 0.0000 1776.3627 -7592.2404 297.8695 -9368.6031 -7642.0733 295.5172 101.7405 116.0635 31301.6809 362.6096 419.0967
ENERGY: 600000 0.9554 4.0242 0.6813 0.0000 -10844.4141 1459.1896 0.0000 0.0000 1777.9689 -7601.5947 298.1388 -9379.5635 -7632.2684 297.5701 -161.1990 -112.7199 31507.5609 76.0947 125.8866
ENERGY: 900000 1.5223 2.5955 0.5392 0.0000 -10837.1392 1466.4404 0.0000 0.0000 1766.8620 -7599.1798 296.2764 -9366.0418 -7629.8294 298.4971 -140.2615 -14.5108 31416.7932 -73.6172 -14.7199
ENERGY: 1200000 0.8457 2.8407 0.2913 0.0000 -10844.0936 1440.4302 0.0000 0.0000 1796.8137 -7602.8720 301.2988 -9399.6857 -7623.1581 298.7086 -31.3907 17.2319 30920.5584 -93.9895 -35.5282
ENERGY: 1500000 0.2872 7.8158 1.6741 0.0000 -10794.9545 1425.3216 0.0000 0.0000 1764.3163 -7595.5395 295.8495 -9359.8558 -7620.2577 298.5195 -275.4900 -259.6833 31425.4151 -137.9930 -81.2029
TCL: Running FEP window   6: Lambda1 0.7499999999999998 Lambda2 0.6999999999999997 [dLambda -0.050000000000000044]
TCL: Setting parameter firsttimestep to 0
TCL: Setting parameter alchLambda to 0.7499999999999998
Info: NONBONDED TABLE R-SQUARED SPACING: 0.0625
Info: NONBONDED TABLE SIZE: 705 POINTS
TCL: Setting parameter alchLambda2 to 0.6999999999999997
Info: NONBONDED TABLE R-SQUARED SPACING: 0.0625
Info: NONBONDED TABLE SIZE: 705 POINTS
TCL: Running for 1500000 steps
ETITLE: TS BOND ANGLE DIHED IMPRP ELECT VDW BOUNDARY MISC KINETIC TOTAL TEMP POTENTIAL TOTALAVG TEMPAVG PRESSURE GPRESSURE VOLUME PRESSAVG GPRESSAVG
ENERGY: 0 0.2872 7.8158 1.6741 0.0000 -10794.6612 1425.6320 0.0000 0.0000 1763.3778 -7595.8742 295.6921 -9359.2520 -7595.8742 295.6921 -337.5511 -261.1624 31425.4151 -337.5511 -261.1624
ENERGY: 300000 0.9712 5.8813 3.8167 0.0000 -10882.8732 1486.4116 0.0000 0.0000 1797.2156 -7588.5769 301.3662 -9385.7925 -7618.3543 298.7240 141.7216 206.0929 31032.1531 271.3476 326.1783
ENERGY: 600000 0.4057 7.1177 2.3615 0.0000 -11035.9642 1563.5640 0.0000 0.0000 1800.3212 -7662.1941 301.8870 -9462.5153 -7612.3617 300.8491 966.2827 1027.7113 30412.5206 234.8779 289.7818
ENERGY: 900000 0.7700 1.7116 1.5907 0.0000 -10878.8908 1470.5225 0.0000 0.0000 1759.2645 -7645.0316 295.0024 -9404.2960 -7611.0170 299.8795 396.3391 494.9704 30321.3589 281.4966 340.3239
ENERGY: 1200000 0.3498 5.7338 0.4607 0.0000 -10863.0823 1466.5372 0.0000 0.0000 1783.1397 -7606.8611 299.0059 -9390.0008 -7610.0459 299.5858 167.0341 221.8901 30837.4698 262.4868 320.5950
ENERGY: 1500000 0.6257 7.9075 0.5634 0.0000 -10947.1656 1463.1049 0.0000 0.0000 1754.1221 -7720.8419 294.1401 -9474.9641 -7623.6997 298.9967 -34.3513 100.2079 30524.2224 193.7810 257.6396
TCL: Running FEP window   7: Lambda1 0.6999999999999997 Lambda2 0.6499999999999997 [dLambda -0.050000000000000044]
TCL: Setting parameter firsttimestep to 0
TCL: Setting parameter alchLambda to 0.6999999999999997
Info: NONBONDED TABLE R-SQUARED SPACING: 0.0625
Info: NONBONDED TABLE SIZE: 705 POINTS
TCL: Setting parameter alchLambda2 to 0.6499999999999997
Info: NONBONDED TABLE R-SQUARED SPACING: 0.0625
Info: NONBONDED TABLE SIZE: 705 POINTS
TCL: Running for 1500000 steps
ETITLE: TS BOND ANGLE DIHED IMPRP ELECT VDW BOUNDARY MISC KINETIC TOTAL TEMP POTENTIAL TOTALAVG TEMPAVG PRESSURE GPRESSURE VOLUME PRESSAVG GPRESSAVG
ENERGY: 0 0.6257 7.9075 0.5634 0.0000 -10947.1482 1463.6120 0.0000 0.0000 1753.2390 -7721.2005 293.9920 -9474.4396 -7721.2005 293.9920 -0.1191 98.2750 30524.2224 -0.1191 98.2750
ENERGY: 300000 0.7898 5.0947 0.3183 0.0000 -11005.2865 1537.2297 0.0000 0.0000 1807.8527 -7654.0014 303.1499 -9461.8541 -7630.1976 300.0891 666.1071 699.4388 30319.4538 318.7523 358.5937
ENERGY: 600000 0.8250 4.6119 1.0422 0.0000 -10870.6820 1460.8593 0.0000 0.0000 1807.2283 -7596.1153 303.0452 -9403.3436 -7616.2056 299.7214 105.7936 190.0347 30551.5583 307.7683 369.3865
ENERGY: 900000 0.4948 4.8659 1.6516 0.0000 -10920.1156 1474.1753 0.0000 0.0000 1796.5949 -7642.3331 301.2621 -9438.9280 -7620.7006 300.1350 226.1909 303.5150 30621.1053 232.2342 297.1920
ENERGY: 1200000 0.3118 4.0794 0.5873 0.0000 -10867.0882 1406.8530 0.0000 0.0000 1727.9793 -7727.2774 289.7563 -9455.2567 -7626.4770 299.0850 -515.6434 -388.7342 30613.8935 61.3126 124.0883
ENERGY: 1500000 0.3928 4.1431 0.2584 0.0000 -10839.0984 1417.3240 0.0000 0.0000 1781.1726 -7635.8075 298.6760 -9416.9801 -7629.5067 298.7818 -274.0989 -228.0729 30879.9740 3.2777 67.5332
TCL: Running FEP window   8: Lambda1 0.6499999999999997 Lambda2 0.5999999999999996 [dLambda -0.050000000000000044]
TCL: Setting parameter firsttimestep to 0
TCL: Setting parameter alchLambda to 0.6499999999999997
Info: NONBONDED TABLE R-SQUARED SPACING: 0.0625
Info: NONBONDED TABLE SIZE: 705 POINTS
TCL: Setting parameter alchLambda2 to 0.5999999999999996
Info: NONBONDED TABLE R-SQUARED SPACING: 0.0625
Info: NONBONDED TABLE SIZE: 705 POINTS
TCL: Running for 1500000 steps
ETITLE: TS BOND ANGLE DIHED IMPRP ELECT VDW BOUNDARY MISC KINETIC TOTAL TEMP POTENTIAL TOTALAVG TEMPAVG PRESSURE GPRESSURE VOLUME PRESSAVG GPRESSAVG
ENERGY: 0 0.3928 4.1431 0.2584 0.0000 -10839.0854 1417.2985 0.0000 0.0000 1780.2755 -7636.7171 298.5256 -9416.9925 -7636.7171 298.5256 -309.6018 -234.6343 30879.9740 -309.6018 -234.6343
ENERGY: 300000 2.9701 3.0235 0.6957 0.0000 -10957.4798 1551.4254 0.0000 0.0000 1782.5961 -7616.7690 298.9147 -9399.3651 -7675.4283 297.3483 770.4605 840.9349 30777.4878 204.7485 277.1877
ENERGY: 600000 0.7568 4.9174 0.3186 0.0000 -10939.2505 1447.1661 0.0000 0.0000 1813.4698 -7672.6218 304.0918 -9486.0916 -7651.4757 299.0535 -423.3993 -335.0247 31032.5246 165.7901 252.0383
ENERGY: 900000 2.3204 6.3645 0.9392 0.0000 -10962.7284 1525.6458 0.0000 0.0000 1739.5140 -7687.9445 291.6905 -9427.4585 -7661.1747 298.4632 535.8944 603.3436 30659.8118 221.0730 295.7160
ENERGY: 1200000 0.1645 4.7505 0.1299 0.0000 -10834.5002 1459.7350 0.0000 0.0000 1799.4546 -7570.2657 301.7417 -9369.7203 -7645.8599 300.1109 20.3789 96.1001 31236.6783 280.4853 361.6229
ENERGY: 1500000 1.2672 2.3199 0.3862 0.0000 -10955.5924 1523.8871 0.0000 0.0000 1761.0057 -7666.7262 295.2944 -9427.7320 -7655.5008 299.4347 3.5385 71.9446 31520.2528 225.3514 299.0507
TCL: Running FEP window   9: Lambda1 0.5999999999999996 Lambda2 0.5499999999999996 [dLambda -0.050000000000000044]
TCL: Setting parameter firsttimestep to 0
TCL: Setting parameter alchLambda to 0.5999999999999996
Info: NONBONDED TABLE R-SQUARED SPACING: 0.0625
Info: NONBONDED TABLE SIZE: 705 POINTS
TCL: Setting parameter alchLambda2 to 0.5499999999999996
Info: NONBONDED TABLE R-SQUARED SPACING: 0.0625
Info: NONBONDED TABLE SIZE: 705 POINTS
TCL: Running for 1500000 steps
ETITLE: TS BOND ANGLE DIHED IMPRP ELECT VDW BOUNDARY MISC KINETIC TOTAL TEMP POTENTIAL TOTALAVG TEMPAVG PRESSURE GPRESSURE VOLUME PRESSAVG GPRESSAVG
ENERGY: 0 1.2672 2.3200 0.3862 0.0000 -10955.4481 1523.9256 0.0000 0.0000 1760.1072 -7667.4419 295.1437 -9427.5491 -7667.4419 295.1437 -13.7428 67.7326 31520.2528 -13.7428 67.7326
ENERGY: 300000 1.2605 5.7820 0.5889 0.0000 -10796.4790 1423.3814 0.0000 0.0000 1750.6340 -7614.8322 293.5552 -9365.4662 -7640.4965 295.6221 -417.4561 -331.0257 31278.1712 -238.3441 -185.7835
ENERGY: 600000 0.8557 5.8567 1.1553 0.0000 -10939.5731 1546.9899 0.0000 0.0000 1764.8059 -7619.9096 295.9316 -9384.7155 -7655.1679 296.3781 588.8270 672.0425 30740.8189 -62.4198 -4.1081
ENERGY: 900000 0.3400 6.5443 1.4479 0.0000 -10916.0994 1458.9938 0.0000 0.0000 1782.4114 -7666.3620 298.8838 -9448.7734 -7650.9128 296.9138 -335.3250 -258.6653 31108.5877 -55.9249 6.1368
ENERGY: 1200000 0.1433 5.6190 2.1962 0.0000 -10897.8566 1458.7373 0.0000 0.0000 1797.4126 -7633.7481 301.3993 -9431.1607 -7651.4041 297.6607 -32.7449 45.2065 30817.7126 -31.9327 23.9499
ENERGY: 1500000 0.1050 5.2735 0.1455 0.0000 -11000.8774 1456.3489 0.0000 0.0000 1776.9768 -7762.0277 297.9725 -9539.0045 -7649.7457 298.4422 -328.6650 -336.1155 30550.1206 -59.8050 -12.7970
TCL: Running FEP window  10: Lambda1 0.5499999999999996 Lambda2 0.4999999999999996 [dLambda -0.04999999999999999]
TCL: Setting parameter firsttimestep to 0
TCL: Setting parameter alchLambda to 0.5499999999999996
Info: NONBONDED TABLE R-SQUARED SPACING: 0.0625
Info: NONBONDED TABLE SIZE: 705 POINTS
TCL: Setting parameter alchLambda2 to 0.4999999999999996
Info: NONBONDED TABLE R-SQUARED SPACING: 0.0625
Info: NONBONDED TABLE SIZE: 705 POINTS
TCL: Running for 1500000 steps
ETITLE: TS BOND ANGLE DIHED IMPRP ELECT VDW BOUNDARY MISC KINETIC TOTAL TEMP POTENTIAL TOTALAVG TEMPAVG PRESSURE GPRESSURE VOLUME PRESSAVG GPRESSAVG
ENERGY: 0 0.1050 5.2735 0.1455 0.0000 -11000.8583 1456.6660 0.0000 0.0000 1776.0317 -7762.6366 297.8140 -9538.6682 -7762.6366 297.8140 -426.7236 -339.9032 30550.1206 -426.7236 -339.9032
ENERGY: 300000 0.4793 2.7025 0.2033 0.0000 -10946.2559 1517.0532 0.0000 0.0000 1788.4345 -7637.3831 299.8938 -9425.8177 -7670.9529 301.9442 504.8420 547.9852 30555.0992 78.4187 128.3588
ENERGY: 600000 0.8308 4.8457 0.1693 0.0000 -10967.9081 1502.6336 0.0000 0.0000 1777.0048 -7682.4240 297.9772 -9459.4288 -7667.7916 300.6456 15.1002 142.5444 30919.8073 88.9096 160.9605
ENERGY: 900000 0.9643 4.2215 0.6673 0.0000 -10832.7258 1437.2148 0.0000 0.0000 1753.4506 -7636.2072 294.0275 -9389.6578 -7667.2189 301.0132 -341.6023 -326.0093 31226.4231 -12.8818 47.5737
ENERGY: 1200000 0.6430 3.5426 0.1046 0.0000 -10858.3301 1470.1209 0.0000 0.0000 1762.6604 -7621.2586 295.5718 -9383.9190 -7659.5149 299.7955 110.6149 178.7763 30901.2674 -65.0598 -2.9259
ENERGY: 1500000 2.9644 1.7025 0.1076 0.0000 -10822.7407 1421.0471 0.0000 0.0000 1759.9639 -7636.9551 295.1197 -9396.9191 -7651.6075 300.7994 -512.8785 -456.3984 31058.9128 -23.9514 31.6699
TCL: Running FEP window  11: Lambda1 0.4999999999999996 Lambda2 0.4499999999999996 [dLambda -0.04999999999999999]
TCL: Setting parameter firsttimestep to 0
TCL: Setting parameter alchLambda to 0.4999999999999996
Info: NONBONDED TABLE R-SQUARED SPACING: 0.0625
Info: NONBONDED TABLE SIZE: 705 POINTS
TCL: Setting parameter alchLambda2 to 0.4499999999999996
Info: NONBONDED TABLE R-SQUARED SPACING: 0.0625
Info: NONBONDED TABLE SIZE: 705 POINTS
TCL: Running for 1500000 steps
ETITLE: TS BOND ANGLE DIHED IMPRP ELECT VDW BOUNDARY MISC KINETIC TOTAL TEMP POTENTIAL TOTALAVG TEMPAVG PRESSURE GPRESSURE VOLUME PRESSAVG GPRESSAVG
ENERGY: 0 2.9644 1.7025 0.1076 0.0000 -10822.5627 1421.2980 0.0000 0.0000 1759.0362 -7637.4539 294.9641 -9396.4901 -7637.4539 294.9641 -542.7789 -457.5675 31058.9128 -542.7789 -457.5675
ENERGY: 300000 0.3948 6.7697 1.4467 0.0000 -10809.1742 1448.2999 0.0000 0.0000 1794.2131 -7558.0500 300.8628 -9352.2631 -7625.4956 297.9987 -4.2414 3.3196 31122.5004 -67.4869 -18.7058
ENERGY: 600000 0.5364 3.5961 0.8750 0.0000 -10846.5201 1417.2936 0.0000 0.0000 1827.8555 -7596.3636 306.5041 -9424.2191 -7620.4121 299.7660 -268.6494 -286.4311 30874.8664 -40.9775 6.6381
ENERGY: 900000 0.5602 2.5781 0.4750 0.0000 -10959.3362 1512.3204 0.0000 0.0000 1761.3715 -7682.0311 295.3557 -9443.4026 -7626.2596 299.0566 297.5126 369.9088 30817.9758 -101.9507 -43.1995
ENERGY: 1200000 0.3627 3.3954 0.1106 0.0000 -10934.0846 1464.9470 0.0000 0.0000 1865.3716 -7599.8973 312.7950 -9465.2689 -7626.2906 301.2869 -81.1971 69.3876 30660.4949 -156.2785 -91.8115
ENERGY: 1500000 0.6103 3.4110 0.4883 0.0000 -10885.3419 1416.0365 0.0000 0.0000 1827.7750 -7637.0209 306.4906 -9464.7959 -7614.1907 301.6194 -364.0856 -266.7073 30424.9398 -163.8969 -98.9462
TCL: Running FEP window  12: Lambda1 0.4499999999999996 Lambda2 0.39999999999999963 [dLambda -0.04999999999999999]
TCL: Setting parameter firsttimestep to 0
TCL: Setting parameter alchLambda to 0.4499999999999996
Info: NONBONDED TABLE R-SQUARED SPACING: 0.0625
Info: NONBONDED TABLE SIZE: 705 POINTS
TCL: Setting parameter alchLambda2 to 0.39999999999999963
Info: NONBONDED TABLE R-SQUARED SPACING: 0.0625
Info: NONBONDED TABLE SIZE: 705 POINTS
TCL: Running for 1500000 steps
ETITLE: TS BOND ANGLE DIHED IMPRP ELECT VDW BOUNDARY MISC KINETIC TOTAL TEMP POTENTIAL TOTALAVG TEMPAVG PRESSURE GPRESSURE VOLUME PRESSAVG GPRESSAVG
ENERGY: 0 0.6103 3.4110 0.4883 0.0000 -10885.3420 1415.9615 0.0000 0.0000 1826.8940 -7637.9770 306.3428 -9464.8710 -7637.9770 306.3428 -354.0161 -273.4360 30424.9398 -354.0161 -273.4360
ENERGY: 300000 0.2917 3.7631 0.0742 0.0000 -10790.8306 1419.5015 0.0000 0.0000 1756.9249 -7610.2751 294.6101 -9367.2000 -7581.6960 303.4454 -181.4801 -158.0959 31008.2039 -401.2870 -343.5654
ENERGY: 600000 2.3743 5.3446 0.1691 0.0000 -10963.2682 1461.5666 0.0000 0.0000 1754.6325 -7739.1812 294.2257 -9493.8137 -7607.5733 301.2697 -92.2275 -81.3207 30409.3526 -154.3404 -105.7191
ENERGY: 900000 2.4786 4.4617 1.0099 0.0000 -10954.2846 1552.6284 0.0000 0.0000 1777.8525 -7615.8535 298.1193 -9393.7060 -7621.1790 299.7354 873.1253 885.0341 30628.2523 5.6918 44.1013
ENERGY: 1200000 0.1547 6.5081 0.3150 0.0000 -10758.7545 1415.5764 0.0000 0.0000 1836.1605 -7500.0398 307.8967 -9336.2002 -7603.8285 301.6386 -252.8779 -142.6747 31188.1496 -50.0545 -0.7573
ENERGY: 1500000 1.4534 2.9725 0.0807 0.0000 -10828.8067 1410.2834 0.0000 0.0000 1758.9962 -7655.0205 294.9574 -9414.0167 -7601.9934 301.9253 -371.3667 -343.8827 31016.2891 -127.0535 -79.9996
TCL: Running FEP window  13: Lambda1 0.39999999999999963 Lambda2 0.34999999999999964 [dLambda -0.04999999999999999]
TCL: Setting parameter firsttimestep to 0
TCL: Setting parameter alchLambda to 0.39999999999999963
Info: NONBONDED TABLE R-SQUARED SPACING: 0.0625
Info: NONBONDED TABLE SIZE: 705 POINTS
TCL: Setting parameter alchLambda2 to 0.34999999999999964
Info: NONBONDED TABLE R-SQUARED SPACING: 0.0625
Info: NONBONDED TABLE SIZE: 705 POINTS
TCL: Running for 1500000 steps
ETITLE: TS BOND ANGLE DIHED IMPRP ELECT VDW BOUNDARY MISC KINETIC TOTAL TEMP POTENTIAL TOTALAVG TEMPAVG PRESSURE GPRESSURE VOLUME PRESSAVG GPRESSAVG
ENERGY: 0 1.4534 2.9725 0.0807 0.0000 -10828.8071 1410.5900 0.0000 0.0000 1758.0768 -7655.6338 294.8032 -9413.7105 -7655.6338 294.8032 -428.0446 -344.2243 31016.2891 -428.0446 -344.2243
ENERGY: 300000 0.6015 3.6033 0.2635 0.0000 -11033.2690 1575.8910 0.0000 0.0000 1781.0755 -7671.8342 298.6598 -9452.9097 -7628.5367 300.4474 469.1090 548.8125 30933.6476 417.8329 485.7850
ENERGY: 600000 0.9225 3.3226 0.1558 0.0000 -10928.4611 1484.4367 0.0000 0.0000 1752.7832 -7686.8404 293.9156 -9439.6235 -7642.2815 300.0181 80.7448 141.8999 30777.9383 105.1010 173.1971
ENERGY: 900000 0.2727 4.8881 2.4085 0.0000 -10750.2564 1398.1814 0.0000 0.0000 1791.0785 -7553.4272 300.3371 -9344.5057 -7620.8911 299.7214 -519.8760 -439.5666 31442.6479 37.8577 102.0315
ENERGY: 1200000 2.0697 2.6603 0.7301 0.0000 -10948.2969 1516.7485 0.0000 0.0000 1808.2965 -7617.7918 303.2243 -9426.0883 -7616.5545 300.8731 371.7440 430.3276 30896.8825 83.3001 152.3279
ENERGY: 1500000 0.2127 3.7130 3.4953 0.0000 -10700.2353 1308.8160 0.0000 0.0000 1821.7724 -7562.2259 305.4840 -9383.9983 -7613.3351 300.5222 -1294.7690 -1267.0379 31193.1563 -42.0789 22.4849
TCL: Running FEP window  14: Lambda1 0.34999999999999964 Lambda2 0.29999999999999966 [dLambda -0.04999999999999999]
TCL: Setting parameter firsttimestep to 0
TCL: Setting parameter alchLambda to 0.34999999999999964
Info: NONBONDED TABLE R-SQUARED SPACING: 0.0625
Info: NONBONDED TABLE SIZE: 705 POINTS
TCL: Setting parameter alchLambda2 to 0.29999999999999966
Info: NONBONDED TABLE R-SQUARED SPACING: 0.0625
Info: NONBONDED TABLE SIZE: 705 POINTS
TCL: Running for 1500000 steps
ETITLE: TS BOND ANGLE DIHED IMPRP ELECT VDW BOUNDARY MISC KINETIC TOTAL TEMP POTENTIAL TOTALAVG TEMPAVG PRESSURE GPRESSURE VOLUME PRESSAVG GPRESSAVG
ENERGY: 0 0.2127 3.7130 3.4953 0.0000 -10700.2351 1309.1551 0.0000 0.0000 1820.9138 -7562.7453 305.3401 -9383.6591 -7562.7453 305.3401 -1345.9106 -1267.5412 31193.1563 -1345.9106 -1267.5412
ENERGY: 300000 0.2694 1.9352 2.6520 0.0000 -11015.0750 1533.8979 0.0000 0.0000 1819.5908 -7656.7298 305.1182 -9476.3206 -7601.7735 303.3399 664.1811 762.1689 30329.7773 -296.0732 -203.5106
ENERGY: 600000 1.3556 5.2566 0.3533 0.0000 -10930.2349 1463.2889 0.0000 0.0000 1821.0020 -7638.9786 305.3548 -9459.9806 -7593.4324 303.4164 -126.2200 -31.1948 30835.6532 -196.5152 -106.6381
ENERGY: 900000 0.7960 5.2839 0.7315 0.0000 -11003.6291 1588.6526 0.0000 0.0000 1801.8698 -7606.2952 302.1467 -9408.1651 -7595.2898 303.0120 972.3767 1069.9119 30628.7480 -89.3951 -2.8200
ENERGY: 1200000 1.6094 4.4922 0.4668 0.0000 -10959.7700 1471.4504 0.0000 0.0000 1775.4528 -7706.2984 297.7169 -9481.7512 -7603.6030 302.5666 -198.3069 -103.0013 30709.4808 -72.1506 12.9941
ENERGY: 1500000 0.5885 10.2711 0.3093 0.0000 -10937.2494 1480.1835 0.0000 0.0000 1735.8603 -7710.0366 291.0779 -9445.8969 -7614.6312 301.7271 -210.7987 -164.9681 30982.3043 -28.5827 50.1147
TCL: Running FEP window  15: Lambda1 0.29999999999999966 Lambda2 0.24999999999999967 [dLambda -0.04999999999999999]
TCL: Setting parameter firsttimestep to 0
TCL: Setting parameter alchLambda to 0.29999999999999966
Info: NONBONDED TABLE R-SQUARED SPACING: 0.0625
Info: NONBONDED TABLE SIZE: 705 POINTS
TCL: Setting parameter alchLambda2 to 0.24999999999999967
Info: NONBONDED TABLE R-SQUARED SPACING: 0.0625
Info: NONBONDED TABLE SIZE: 705 POINTS
TCL: Running for 1500000 steps
ETITLE: TS BOND ANGLE DIHED IMPRP ELECT VDW BOUNDARY MISC KINETIC TOTAL TEMP POTENTIAL TOTALAVG TEMPAVG PRESSURE GPRESSURE VOLUME PRESSAVG GPRESSAVG
ENERGY: 0 0.5885 10.2711 0.3093 0.0000 -10937.2520 1480.4131 0.0000 0.0000 1734.9578 -7710.7121 290.9265 -9445.6699 -7710.7121 290.9265 -243.5231 -166.1832 30982.3043 -243.5231 -166.1832
ENERGY: 300000 0.5151 6.3029 0.5782 0.0000 -10811.6427 1395.8249 0.0000 0.0000 1827.4774 -7580.9442 306.4407 -9408.4216 -7597.9474 302.6520 -467.2482 -392.9268 30703.2305 -248.1726 -192.9658
ENERGY: 600000 0.9869 5.2571 0.7417 0.0000 -11022.8158 1521.1952 0.0000 0.0000 1791.8431 -7702.7919 300.4653 -9494.6349 -7612.4190 300.9469 240.6760 318.0941 30540.5358 -314.6011 -247.5853
ENERGY: 900000 0.4802 4.4051 0.1786 0.0000 -11076.9296 1555.7072 0.0000 0.0000 1773.8958 -7742.2626 297.4558 -9516.1584 -7614.1169 299.8754 443.7002 491.1317 30580.9867 -150.8843 -89.9565
ENERGY: 1200000 2.7775 4.2825 0.8886 0.0000 -10963.1411 1487.4965 0.0000 0.0000 1726.7847 -7740.9112 289.5560 -9467.6959 -7619.2730 299.0887 100.6699 151.8576 30600.7353 -35.7790 19.5294
ENERGY: 1500000 0.6804 5.3262 0.1430 0.0000 -10909.4103 1474.9881 0.0000 0.0000 1826.8436 -7601.4289 306.3344 -9428.2725 -7614.9299 300.4450 52.7157 134.6849 30739.5330 43.1574 99.6154
TCL: Running FEP window  16: Lambda1 0.24999999999999967 Lambda2 0.19999999999999968 [dLambda -0.04999999999999999]
TCL: Setting parameter firsttimestep to 0
TCL: Setting parameter alchLambda to 0.24999999999999967
Info: NONBONDED TABLE R-SQUARED SPACING: 0.0625
Info: NONBONDED TABLE SIZE: 705 POINTS
TCL: Setting parameter alchLambda2 to 0.19999999999999968
Info: NONBONDED TABLE R-SQUARED SPACING: 0.0625
Info: NONBONDED TABLE SIZE: 705 POINTS
TCL: Running for 1500000 steps
ETITLE: TS BOND ANGLE DIHED IMPRP ELECT VDW BOUNDARY MISC KINETIC TOTAL TEMP POTENTIAL TOTALAVG TEMPAVG PRESSURE GPRESSURE VOLUME PRESSAVG GPRESSAVG
ENERGY: 0 0.6804 5.3262 0.1430 0.0000 -10909.4110 1474.8802 0.0000 0.0000 1825.9400 -7602.4411 306.1829 -9428.3811 -7602.4411 306.1829 36.8371 131.5444 30739.5330 36.8371 131.5444
ENERGY: 300000 1.0622 5.7894 1.2945 0.0000 -10886.5113 1488.0632 0.0000 0.0000 1779.1164 -7611.1856 298.3313 -9390.3020 -7602.5455 302.7281 305.8112 292.4563 30917.5768 -84.5604 -21.1780
ENERGY: 600000 0.8110 2.5247 0.2761 0.0000 -10859.4164 1435.2664 0.0000 0.0000 1802.1306 -7618.4076 302.1904 -9420.5382 -7594.5985 302.4915 -227.7319 -214.4178 30891.8722 -119.9982 -56.6693
ENERGY: 900000 0.1339 5.0155 0.4355 0.0000 -10892.9804 1455.7225 0.0000 0.0000 1797.7971 -7633.8758 301.4637 -9431.6729 -7605.9182 301.6633 -134.6857 -87.2846 30812.8357 -160.1196 -93.4061
ENERGY: 1200000 0.2983 3.9014 0.4789 0.0000 -10920.1500 1476.9357 0.0000 0.0000 1742.3889 -7696.1467 292.1726 -9438.5356 -7612.1201 301.1268 35.3795 98.7804 30618.6401 -109.1758 -42.9053
ENERGY: 1500000 0.2813 2.8153 0.7916 0.0000 -10836.8149 1498.0842 0.0000 0.0000 1807.8058 -7527.0367 303.1420 -9334.8425 -7620.4415 300.2632 519.8051 604.5565 30995.4102 -65.5204 1.0328
TCL: Running FEP window  17: Lambda1 0.19999999999999968 Lambda2 0.1499999999999997 [dLambda -0.04999999999999999]
TCL: Setting parameter firsttimestep to 0
TCL: Setting parameter alchLambda to 0.19999999999999968
Info: NONBONDED TABLE R-SQUARED SPACING: 0.0625
Info: NONBONDED TABLE SIZE: 705 POINTS
TCL: Setting parameter alchLambda2 to 0.1499999999999997
Info: NONBONDED TABLE R-SQUARED SPACING: 0.0625
Info: NONBONDED TABLE SIZE: 705 POINTS
TCL: Running for 1500000 steps
ETITLE: TS BOND ANGLE DIHED IMPRP ELECT VDW BOUNDARY MISC KINETIC TOTAL TEMP POTENTIAL TOTALAVG TEMPAVG PRESSURE GPRESSURE VOLUME PRESSAVG GPRESSAVG
ENERGY: 0 0.2813 2.8154 0.7916 0.0000 -10836.8121 1497.6426 0.0000 0.0000 1806.8849 -7528.3964 302.9876 -9335.2813 -7528.3964 302.9876 516.8451 599.5012 30995.4102 516.8451 599.5012
ENERGY: 300000 1.3799 3.5701 0.5833 0.0000 -10801.2630 1436.9191 0.0000 0.0000 1821.9501 -7536.8605 305.5138 -9358.8106 -7559.8772 305.0995 -175.2504 -118.5004 30800.7175 -35.8754 24.9358
ENERGY: 600000 0.1981 6.1320 0.3383 0.0000 -10867.4899 1432.5713 0.0000 0.0000 1866.0827 -7562.1675 312.9142 -9428.2502 -7578.8262 303.7464 -381.7724 -281.7935 31008.9390 -4.0572 49.6867
ENERGY: 900000 0.2925 2.9585 0.8927 0.0000 -10737.6230 1380.4730 0.0000 0.0000 1733.4537 -7619.5527 290.6743 -9353.0064 -7612.4455 299.5247 -607.6022 -584.0452 31213.6791 -144.3404 -92.3852
ENERGY: 1200000 0.0728 6.6850 0.7393 0.0000 -10960.2945 1533.0121 0.0000 0.0000 1794.8720 -7624.9132 300.9732 -9419.7852 -7617.4498 300.9356 269.6674 396.0528 30964.3275 -68.3549 -5.7920
ENERGY: 1500000 1.8075 6.2921 0.0541 0.0000 -10994.7335 1523.2148 0.0000 0.0000 1768.9938 -7694.3712 296.6338 -9463.3649 -7626.1118 300.7047 271.5269 328.5260 30755.0845 1.0999 56.1690
TCL: Running FEP window  18: Lambda1 0.1499999999999997 Lambda2 0.09999999999999969 [dLambda -0.05 ]
TCL: Setting parameter firsttimestep to 0
TCL: Setting parameter alchLambda to 0.1499999999999997
Info: NONBONDED TABLE R-SQUARED SPACING: 0.0625
Info: NONBONDED TABLE SIZE: 705 POINTS
TCL: Setting parameter alchLambda2 to 0.09999999999999969
Info: NONBONDED TABLE R-SQUARED SPACING: 0.0625
Info: NONBONDED TABLE SIZE: 705 POINTS
TCL: Running for 1500000 steps
ETITLE: TS BOND ANGLE DIHED IMPRP ELECT VDW BOUNDARY MISC KINETIC TOTAL TEMP POTENTIAL TOTALAVG TEMPAVG PRESSURE GPRESSURE VOLUME PRESSAVG GPRESSAVG
ENERGY: 0 1.8075 6.2921 0.0541 0.0000 -10994.7342 1523.3171 0.0000 0.0000 1768.1298 -7695.1337 296.4890 -9463.2634 -7695.1337 296.4890 227.8416 323.6790 30755.0845 227.8416 323.6790
ENERGY: 300000 2.7337 3.3338 0.6033 0.0000 -10906.7843 1455.8069 0.0000 0.0000 1800.3600 -7643.9466 301.8935 -9444.3065 -7636.9359 299.6107 -257.0509 -165.9600 31163.7396 10.2564 67.7814
ENERGY: 600000 3.7273 4.3495 0.3130 0.0000 -10878.1283 1421.1860 0.0000 0.0000 1801.2413 -7647.3113 302.0413 -9448.5526 -7640.7305 299.8864 -358.5036 -356.3679 30374.3978 -118.1567 -55.5312
ENERGY: 900000 2.1508 3.1553 0.7339 0.0000 -10689.0286 1366.1549 0.0000 0.0000 1814.3431 -7502.4907 304.2382 -9316.8337 -7646.7625 299.0938 -397.1056 -356.0852 30690.9171 -47.2036 13.7322
ENERGY: 1200000 0.3200 7.0105 0.4847 0.0000 -10798.9832 1409.9611 0.0000 0.0000 1758.9269 -7622.2800 294.9458 -9381.2069 -7662.0198 297.8175 -354.7262 -328.1249 30888.5441 -49.0968 9.3201
ENERGY: 1500000 0.3895 3.2165 0.7798 0.0000 -10801.7180 1448.5805 0.0000 0.0000 1781.4479 -7567.3038 298.7222 -9348.7517 -7651.7615 298.4876 -245.7027 -213.7455 31369.3189 -131.4925 -72.5725
TCL: Running FEP window  19: Lambda1 0.09999999999999969 Lambda2 0.049999999999999684 [dLambda -0.05 ]
TCL: Setting parameter firsttimestep to 0
TCL: Setting parameter alchLambda to 0.09999999999999969
Info: NONBONDED TABLE R-SQUARED SPACING: 0.0625
Info: NONBONDED TABLE SIZE: 705 POINTS
TCL: Setting parameter alchLambda2 to 0.049999999999999684
Info: NONBONDED TABLE R-SQUARED SPACING: 0.0625
Info: NONBONDED TABLE SIZE: 705 POINTS
TCL: Running for 1500000 steps
ETITLE: TS BOND ANGLE DIHED IMPRP ELECT VDW BOUNDARY MISC KINETIC TOTAL TEMP POTENTIAL TOTALAVG TEMPAVG PRESSURE GPRESSURE VOLUME PRESSAVG GPRESSAVG
ENERGY: 0 0.3895 3.2165 0.7798 0.0000 -10801.7148 1448.6424 0.0000 0.0000 1780.5203 -7568.1663 298.5667 -9348.6866 -7568.1663 298.5667 -295.8314 -216.6688 31369.3189 -295.8314 -216.6688
ENERGY: 300000 1.6512 3.7374 0.2681 0.0000 -10777.3406 1409.4594 0.0000 0.0000 1802.7542 -7559.4703 302.2950 -9362.2245 -7607.5427 298.9551 -34.9221 -38.4257 30505.5349 -92.5915 -46.3667
ENERGY: 600000 2.2082 4.1263 0.5829 0.0000 -10976.8204 1545.8016 0.0000 0.0000 1779.9770 -7644.1244 298.4756 -9424.1014 -7600.3243 299.4645 724.0545 772.8464 30331.4498 125.7684 181.2752
ENERGY: 900000 0.8613 3.6995 0.3416 0.0000 -10917.3763 1424.2718 0.0000 0.0000 1784.6609 -7703.5411 299.2610 -9488.2020 -7620.3111 300.0782 -765.9214 -613.5450 30717.8360 -17.6972 52.9888
ENERGY: 1200000 0.2936 6.7953 0.1695 0.0000 -10912.8363 1561.9782 0.0000 0.0000 1828.6221 -7514.9776 306.6326 -9343.5997 -7603.4556 301.2957 951.2200 1017.7423 30665.7506 85.5642 153.6703
ENERGY: 1500000 0.5777 4.2153 1.4066 0.0000 -10868.6630 1440.0761 0.0000 0.0000 1765.3395 -7657.0477 296.0211 -9422.3872 -7614.0241 300.7513 -152.8982 -101.0738 30619.4134 73.5125 138.2719
TCL: Running FEP window  20: Lambda1 0.049999999999999684 Lambda2 0.0    [dLambda -0.049999999999999684]
TCL: Setting parameter firsttimestep to 0
TCL: Setting parameter alchLambda to 0.049999999999999684
Info: NONBONDED TABLE R-SQUARED SPACING: 0.0625
Info: NONBONDED TABLE SIZE: 705 POINTS
TCL: Setting parameter alchLambda2 to 0.0
Info: NONBONDED TABLE R-SQUARED SPACING: 0.0625
Info: NONBONDED TABLE SIZE: 705 POINTS
TCL: Running for 1500000 steps
ETITLE: TS BOND ANGLE DIHED IMPRP ELECT VDW BOUNDARY MISC KINETIC TOTAL TEMP POTENTIAL TOTALAVG TEMPAVG PRESSURE GPRESSURE VOLUME PRESSAVG GPRESSAVG
ENERGY: 0 0.5778 4.2153 1.4066 0.0000 -10868.6631 1439.8317 0.0000 0.0000 1764.4032 -7658.2285 295.8641 -9422.6316 -7658.2285 295.8641 -184.2305 -105.5707 30619.4134 -184.2305 -105.5707
ENERGY: 300000 1.4698 6.0331 0.4894 0.0000 -10767.2489 1390.4271 0.0000 0.0000 1759.3612 -7609.4682 295.0186 -9368.8294 -7665.1734 294.3645 -716.9892 -644.9062 31382.5113 -603.8905 -574.2405
ENERGY: 600000 2.0893 2.1846 0.0481 0.0000 -10923.3532 1470.5757 0.0000 0.0000 1792.7779 -7655.6776 300.6221 -9448.4555 -7667.7879 295.9378 -32.2358 15.8897 30900.8310 -425.6537 -385.5713
ENERGY: 900000 0.2457 6.2122 0.5333 0.0000 -11080.3157 1564.0198 0.0000 0.0000 1834.2447 -7675.0599 307.5755 -9509.3046 -7665.0351 298.3223 582.4634 667.1275 30494.3935 -201.6772 -159.9041
ENERGY: 1200000 0.9800 2.8460 0.0878 0.0000 -10902.6287 1569.3885 0.0000 0.0000 1785.4393 -7543.8870 299.3915 -9329.3263 -7643.2143 299.2440 1204.0116 1181.2208 30473.7843 -71.4954 -24.7862
ENERGY: 1500000 0.5831 3.2088 0.9837 0.0000 -10827.7979 1371.1690 0.0000 0.0000 1806.4291 -7645.4243 302.9112 -9451.8534 -7632.9296 300.1582 -826.4178 -759.6728 30854.4825 -79.3866 -29.7142
TCL: Exiting due to exit command.
