Info: SIMULATION PARAMETERS:
Info: TIMESTEP               2
Info: NUMBER OF STEPS        0
Info: STEPS PER CYCLE        10
Info: PERIODIC CELL BASIS 1  30.9539 0 0
Info: PERIODIC CELL BASIS 2  0 31.6556 0
Info: PERIODIC CELL BASIS 3  0 0 31.606
Info: PERIODIC CELL CENTER   0 0 0
Info: WRAPPING WATERS AROUND PERIODIC BOUNDARIES ON OUTPUT.
Info: WRAPPING ALL CLUSTERS AROUND PERIODIC BOUNDARIES ON OUTPUT.
Info: FIRST LDB TIMESTEP     50
Info: LAST LDB TIMESTEP     -1
Info: HOM BACKGROUND SCALING 1
Info: PME BACKGROUND SCALING 1
Info: MIN ATOMS PER PATCH    40
Info: EMPTY PATCH LOAD       40 ATOMS
Info: VELOCITY FILE          mobley_9434451_equil.vel
Info: CENTER OF MASS MOVING INITIALLY? NO
Info: DIELECTRIC             1
Info: EXCLUDE                SCALED ONE-FOUR
Info: 1-4 ELECTROSTATICS SCALED BY 0.833333
Info: MODIFIED 1-4 VDW PARAMETERS WILL BE USED
Info: DCD FILENAME           mobley_9434451_prod.dcd
Info: DCD FREQUENCY          100000
Info: DCD FIRST STEP         100000
Info: DCD FILE WILL CONTAIN UNIT CELL DATA
Info: XST FILENAME           mobley_9434451_prod.xst
Info: XST FREQUENCY          100000
Info: NO VELOCITY DCD OUTPUT
Info: NO FORCE DCD OUTPUT
Info: OUTPUT FILENAME        mobley_9434451_prod
Info: BINARY OUTPUT FILES WILL BE USED
Info: RESTART FILENAME       mobley_9434451_prod.restart
Info: RESTART FREQUENCY      100000
Info: BINARY RESTART FILES WILL BE USED
Info: CUTOFF                 9
Info: PAIRLIST DISTANCE      11
Info: PAIRLIST SHRINK RATE   0.01
Info: PAIRLIST GROW RATE     0.01
Info: PAIRLIST TRIGGER       0.3
Info: PAIRLISTS PER CYCLE    2
Info: PAIRLISTS ENABLED
Info: MARGIN                 2
Info: HYDROGEN GROUP CUTOFF  2.5
Info: PATCH DIMENSION        15.5
Info: ENERGY OUTPUT STEPS    100000
Info: ENERGY EVALUATION STEPS    100000
Info: OUTPUT ENERGY PRECISION 4
Info: CROSSTERM ENERGY INCLUDED IN DIHEDRAL
Info: TIMING OUTPUT STEPS    1000000
Info: PRESSURE OUTPUT STEPS  100000
Info: ALCHEMICAL FEP ON
Info: FEP CURRENT LAMBDA VALUE     0
Info: FEP COMPARISON LAMBDA VALUE  0.05
Info: FEP INTRA-ALCHEMICAL NON-BONDED INTERACTIONS WILL BE RETAINED
Info: FEP INTRA-ALCHEMICAL BONDED INTERACTIONS WILL BE RETAINED
Info: FEP VDW SHIFTING COEFFICIENT 5
Info: FEP ELEC. ACTIVE FOR ANNIHILATED PARTICLES BETWEEN LAMBDA = 0 AND LAMBDA = 0.5
Info: FEP ELEC. ACTIVE FOR EXNIHILATED PARTICLES BETWEEN LAMBDA = 0.5 AND LAMBDA = 1
Info: FEP VDW ACTIVE FOR ANNIHILATED PARTICLES BETWEEN LAMBDA = 0 AND LAMBDA = 1
Info: FEP VDW ACTIVE FOR EXNIHILATED PARTICLES BETWEEN LAMBDA = 0 AND LAMBDA = 1
Info: FEP BOND ACTIVE FOR ANNIHILATED PARTICLES BETWEEN LAMBDA = 1 AND LAMBDA = 1
Info: FEP BOND ACTIVE FOR EXNIHILATED PARTICLES BETWEEN LAMBDA = 0 AND LAMBDA = 0
Info: LANGEVIN DYNAMICS ACTIVE
Info: LANGEVIN TEMPERATURE   300
Info: LANGEVIN USING BBK INTEGRATOR
Info: LANGEVIN DAMPING COEFFICIENT IS 1 INVERSE PS
Info: LANGEVIN DYNAMICS APPLIED TO HYDROGENS
Info: LANGEVIN PISTON PRESSURE CONTROL ACTIVE
Info:        TARGET PRESSURE IS 1.01325 BAR
Info:     OSCILLATION PERIOD IS 50 FS
Info:             DECAY TIME IS 25 FS
Info:     PISTON TEMPERATURE IS 300 K
Info:       PRESSURE CONTROL IS GROUP-BASED
Info:    INITIAL STRAIN RATE IS 0.00039062 0.00039062 0.00039062
Info:       CELL FLUCTUATION IS ISOTROPIC
Info: PARTICLE MESH EWALD (PME) ACTIVE
Info: PME TOLERANCE               1e-06
Info: PME EWALD COEFFICIENT       0.348832
Info: PME INTERPOLATION ORDER     4
Info: PME GRID DIMENSIONS         32 32 32
Info: PME MAXIMUM GRID SPACING    1
Info: PME CALCULATION WILL BE PERFORMED ON GPU
Info: FULL ELECTROSTATIC EVALUATION FREQUENCY      2
Info: USING VERLET I (r-RESPA) MTS SCHEME.
Info: C1 SPLITTING OF LONG RANGE ELECTROSTATICS
Info: PLACING ATOMS IN PATCHES BY HYDROGEN GROUPS
Info: RIGID BONDS TO HYDROGEN : ALL
Info:         ERROR TOLERANCE : 1e-08
Info:          MAX ITERATIONS : 100
Info: RIGID WATER USING SETTLE ALGORITHM
Info: RANDOM NUMBER SEED     1742543415
Info: USE HYDROGEN BONDS?    NO
Info: Using AMBER format force field!
Info: AMBER PARM FILE        mobley_9434451.prmtop
Info: COORDINATE PDB         mobley_9434451.pdb
Info: Exclusions will be read from PARM file!
Info: SCNB (VDW SCALING)     2
Info: USING ARITHMETIC MEAN TO COMBINE L-J SIGMA PARAMETERS
Info: BINARY COORDINATES     mobley_9434451_equil.coor
Info: SUMMARY OF PARAMETERS:
Info: 6 BONDS
Info: 6 ANGLES
Info:   6 HARMONIC
Info:   0 COSINE-BASED
Info: 3 DIHEDRAL
Info: 0 IMPROPER
Info: 0 CROSSTERM
Info: 0 VDW
Info: 21 VDW_PAIRS
Info: 0 NBTHOLE_PAIRS
Info: To read alchdata from file: mobley_9434451.pdb
Info: To read alchflag data from column: 5
Info: STRUCTURE SUMMARY:
Info: 2978 ATOMS
Info: 2977 BONDS
Info: 18 ANGLES
Info: 18 DIHEDRALS
Info: 0 IMPROPERS
Info: 0 CROSSTERMS
Info: 3013 EXCLUSIONS
Info: 2974 RIGID BONDS
Info: ALCH: 0 ATOMS TO DISAPPEAR IN FINAL STATE
Info: ALCH: 11 ATOMS TO APPEAR IN FINAL STATE
Info: 5960 DEGREES OF FREEDOM
Info: 993 HYDROGEN GROUPS
Info: 4 ATOMS IN LARGEST HYDROGEN GROUP
Info: 993 MIGRATION GROUPS
Info: 4 ATOMS IN LARGEST MIGRATION GROUP
Info: TOTAL MASS = 17940.8 amu
Info: TOTAL CHARGE = -0.000299979 e
Info: MASS DENSITY = 0.961979 g/cm^3
Info: ATOM DENSITY = 0.0961588 atoms/A^3
Info: ADDED 0 IMPLICIT EXCLUSIONS
Info: NONBONDED TABLE R-SQUARED SPACING: 0.0625
Info: NONBONDED TABLE SIZE: 705 POINTS
Info: REMOVING COM VELOCITY 0.0163651 -0.0625946 0.170965
Info: Use 3D box decompostion in PME FFT.
Info: Updated CUDA force table with 4096 elements.
Info: Updated CUDA LJ table with 6 x 6 elements.
Info: Found 14 unique exclusion lists needing 24 bytes
TCL: Running for 1500000 steps
ETITLE: TS BOND ANGLE DIHED IMPRP ELECT VDW BOUNDARY MISC KINETIC TOTAL TEMP POTENTIAL TOTALAVG TEMPAVG PRESSURE GPRESSURE VOLUME PRESSAVG GPRESSAVG
ENERGY: 0 0.5281 4.5974 0.3726 0.0000 -10893.5755 1489.9617 0.0000 0.0000 1773.4041 -7624.7116 299.4690 -9398.1157 -7624.7116 299.4690 -157.1565 -74.6439 30969.6087 -157.1565 -74.6439
ENERGY: 300000 0.6905 3.4092 0.8488 0.0000 -10882.0416 1473.6810 0.0000 0.0000 1759.3277 -7644.0844 297.0919 -9403.4121 -7587.9722 301.5360 71.5135 183.8593 30276.5440 64.6370 135.0539
ENERGY: 600000 0.5168 3.0787 1.7061 0.0000 -10784.7249 1432.5897 0.0000 0.0000 1723.0047 -7623.8291 290.9582 -9346.8337 -7603.2225 298.8455 -308.1266 -246.7855 30804.1663 -108.8972 -35.8142
ENERGY: 900000 2.1535 3.2358 0.1210 0.0000 -10875.3532 1507.3572 0.0000 0.0000 1765.6177 -7596.8680 298.1541 -9362.4856 -7601.8412 299.8763 421.6164 448.6110 30479.1755 -0.3095 68.7105
ENERGY: 1200000 0.1070 4.0014 0.3188 0.0000 -10682.8985 1355.7483 0.0000 0.0000 1776.1343 -7546.5886 299.9300 -9322.7230 -7603.8594 299.7211 -601.8928 -531.7810 30499.7824 -22.7352 49.7862
ENERGY: 1500000 1.3255 7.4508 0.3502 0.0000 -10885.8099 1472.7600 0.0000 0.0000 1779.2759 -7624.6474 300.4605 -9403.9233 -7595.6627 299.7269 145.7098 202.5798 30252.3716 15.4350 89.3140
TCL: Running FEP window   2: Lambda1 0.05   Lambda2 0.1    [dLambda 0.05  ]
TCL: Setting parameter firsttimestep to 0
TCL: Setting parameter alchLambda to 0.05
Info: NONBONDED TABLE R-SQUARED SPACING: 0.0625
Info: NONBONDED TABLE SIZE: 705 POINTS
TCL: Setting parameter alchLambda2 to 0.1
Info: NONBONDED TABLE R-SQUARED SPACING: 0.0625
Info: NONBONDED TABLE SIZE: 705 POINTS
TCL: Running for 1500000 steps
ETITLE: TS BOND ANGLE DIHED IMPRP ELECT VDW BOUNDARY MISC KINETIC TOTAL TEMP POTENTIAL TOTALAVG TEMPAVG PRESSURE GPRESSURE VOLUME PRESSAVG GPRESSAVG
ENERGY: 0 1.3255 7.4508 0.3502 0.0000 -10885.8109 1473.9223 0.0000 0.0000 1778.3874 -7624.3748 300.3105 -9402.7622 -7624.3748 300.3105 119.2751 209.8146 30252.3716 119.2751 209.8146
ENERGY: 300000 1.7342 4.8045 0.4010 0.0000 -10825.2032 1451.6981 0.0000 0.0000 1803.6118 -7562.9536 304.5701 -9366.5654 -7591.6189 299.5955 62.1300 165.6323 30429.6504 -195.0248 -126.1798
ENERGY: 600000 0.0706 5.4102 0.5410 0.0000 -10769.2631 1431.0481 0.0000 0.0000 1762.1186 -7570.0746 297.5632 -9332.1932 -7583.1871 299.5367 -357.3991 -271.1162 30884.2164 -152.2748 -77.0771
ENERGY: 900000 0.4035 3.1436 0.9071 0.0000 -10804.9573 1400.8068 0.0000 0.0000 1775.7531 -7623.9432 299.8656 -9399.6963 -7595.2991 299.2648 -657.5464 -563.0625 30818.5151 -179.2544 -112.6464
ENERGY: 1200000 1.0870 6.2348 1.2598 0.0000 -10811.7331 1397.3588 0.0000 0.0000 1801.5514 -7604.2414 304.2221 -9405.7928 -7585.2703 299.8964 -573.8436 -437.1031 30128.4639 -202.6077 -137.1333
ENERGY: 1500000 1.6307 3.2318 1.1393 0.0000 -10831.4442 1497.8708 0.0000 0.0000 1789.6803 -7537.8914 302.2175 -9327.5716 -7576.1782 300.2729 468.5623 543.9578 30400.2587 -135.0373 -73.1730
TCL: Running FEP window   3: Lambda1 0.1    Lambda2 0.15000000000000002 [dLambda 0.05000000000000002]
TCL: Setting parameter firsttimestep to 0
TCL: Setting parameter alchLambda to 0.1
Info: NONBONDED TABLE R-SQUARED SPACING: 0.0625
Info: NONBONDED TABLE SIZE: 705 POINTS
TCL: Setting parameter alchLambda2 to 0.15000000000000002
Info: NONBONDED TABLE R-SQUARED SPACING: 0.0625
Info: NONBONDED TABLE SIZE: 705 POINTS
TCL: Running for 1500000 steps
ETITLE: TS BOND ANGLE DIHED IMPRP ELECT VDW BOUNDARY MISC KINETIC TOTAL TEMP POTENTIAL TOTALAVG TEMPAVG PRESSURE GPRESSURE VOLUME PRESSAVG GPRESSAVG
ENERGY: 0 1.6307 3.2318 1.1393 0.0000 -10831.4439 1499.6695 0.0000 0.0000 1788.7789 -7536.9938 302.0653 -9325.7727 -7536.9938 302.0653 467.4930 551.6405 30400.2587 467.4930 551.6405
ENERGY: 300000 0.7244 3.0001 0.1346 0.0000 -10717.2485 1414.1089 0.0000 0.0000 1781.1386 -7518.1419 300.7751 -9299.2805 -7542.0939 300.7000 -95.5198 2.0048 30249.0579 359.3457 442.5102
ENERGY: 600000 0.6713 6.1707 0.3113 0.0000 -10804.8648 1485.3369 0.0000 0.0000 1758.9048 -7553.4698 297.0205 -9312.3746 -7557.9321 298.6067 293.3809 339.6723 30635.0884 288.8469 363.8465
ENERGY: 900000 0.8987 5.5543 1.3784 0.0000 -10773.5261 1437.0515 0.0000 0.0000 1817.0379 -7511.6053 306.8373 -9328.6433 -7545.7914 300.2206 17.7189 53.1091 30382.7360 230.9989 288.3745
ENERGY: 1200000 0.9043 5.5631 0.3635 0.0000 -10740.1214 1444.0076 0.0000 0.0000 1810.7270 -7478.5559 305.7716 -9289.2829 -7553.7040 300.5661 228.3112 304.0403 30390.5180 147.4257 206.5766
ENERGY: 1500000 1.4595 3.6668 0.5282 0.0000 -10818.4870 1440.1037 0.0000 0.0000 1754.6525 -7618.0762 296.3025 -9372.7288 -7556.0310 300.5368 -54.9901 -1.0770 30368.5715 85.8215 148.2769
TCL: Running FEP window   4: Lambda1 0.15000000000000002 Lambda2 0.2    [dLambda 0.04999999999999999]
TCL: Setting parameter firsttimestep to 0
TCL: Setting parameter alchLambda to 0.15000000000000002
Info: NONBONDED TABLE R-SQUARED SPACING: 0.0625
Info: NONBONDED TABLE SIZE: 705 POINTS
TCL: Setting parameter alchLambda2 to 0.2
Info: NONBONDED TABLE R-SQUARED SPACING: 0.0625
Info: NONBONDED TABLE SIZE: 705 POINTS
TCL: Running for 1500000 steps
ETITLE: TS BOND ANGLE DIHED IMPRP ELECT VDW BOUNDARY MISC KINETIC TOTAL TEMP POTENTIAL TOTALAVG TEMPAVG PRESSURE GPRESSURE VOLUME PRESSAVG GPRESSAVG
ENERGY: 0 1.4595 3.6668 0.5282 0.0000 -10818.4869 1442.6491 0.0000 0.0000 1753.8072 -7616.3760 296.1597 -9370.1832 -7616.3760 296.1597 -70.0016 3.1339 30368.5715 -70.0016 3.1339
ENERGY: 300000 0.4953 2.3078 0.3559 0.0000 -10849.3335 1493.2777 0.0000 0.0000 1757.9413 -7594.9555 296.8578 -9352.8968 -7589.6996 298.3428 529.2325 601.7428 30194.4367 241.9327 278.9233
ENERGY: 600000 0.3864 4.3500 0.3823 0.0000 -10913.9995 1560.1221 0.0000 0.0000 1788.9516 -7559.8071 302.0944 -9348.7587 -7574.9911 300.8322 748.9614 827.3961 30655.1912 210.0694 259.6558
ENERGY: 900000 0.8043 6.9983 0.2192 0.0000 -10906.7809 1502.1563 0.0000 0.0000 1808.1470 -7588.4558 305.3359 -9396.6028 -7586.1307 300.5654 498.2373 630.6241 29933.9245 190.9731 248.0843
ENERGY: 1200000 1.6303 3.5122 0.1270 0.0000 -10892.4199 1499.1989 0.0000 0.0000 1821.1203 -7566.8312 307.5267 -9387.9515 -7588.7990 300.3628 142.6099 263.0031 30404.0899 254.3733 317.6181
ENERGY: 1500000 1.2314 5.1024 1.7175 0.0000 -10792.3889 1471.9742 0.0000 0.0000 1808.8486 -7503.5147 305.4544 -9312.3634 -7582.0748 300.3989 56.5226 92.6307 30799.1489 253.5193 317.1659
TCL: Running FEP window   5: Lambda1 0.2    Lambda2 0.25   [dLambda 0.04999999999999999]
TCL: Setting parameter firsttimestep to 0
TCL: Setting parameter alchLambda to 0.2
Info: NONBONDED TABLE R-SQUARED SPACING: 0.0625
Info: NONBONDED TABLE SIZE: 705 POINTS
TCL: Setting parameter alchLambda2 to 0.25
Info: NONBONDED TABLE R-SQUARED SPACING: 0.0625
Info: NONBONDED TABLE SIZE: 705 POINTS
TCL: Running for 1500000 steps
ETITLE: TS BOND ANGLE DIHED IMPRP ELECT VDW BOUNDARY MISC KINETIC TOTAL TEMP POTENTIAL TOTALAVG TEMPAVG PRESSURE GPRESSURE VOLUME PRESSAVG GPRESSAVG
ENERGY: 0 1.2314 5.1024 1.7175 0.0000 -10792.3880 1472.2954 0.0000 0.0000 1807.9438 -7504.0975 305.3016 -9312.0413 -7504.0975 305.3016 12.0869 100.1238 30799.1489 12.0869 100.1238
ENERGY: 300000 1.6222 9.1587 0.4265 0.0000 -10811.1746 1510.6613 0.0000 0.0000 1811.0846 -7478.2213 305.8320 -9289.3059 -7518.6047 304.3788 449.4874 481.2329 30965.1788 311.2906 365.2721
ENERGY: 600000 0.5103 5.0936 0.5975 0.0000 -10877.3827 1524.0271 0.0000 0.0000 1768.2971 -7578.8572 298.6066 -9347.1543 -7549.2249 300.4915 446.6141 545.4095 30538.5642 171.2226 228.9772
ENERGY: 900000 0.7101 7.0738 0.4273 0.0000 -10765.2258 1452.6564 0.0000 0.0000 1773.1199 -7531.2384 299.4210 -9304.3583 -7570.1749 299.6281 13.0077 100.5618 30787.2181 55.2982 116.0399
ENERGY: 1200000 1.0217 6.9501 0.3458 0.0000 -10881.3261 1422.8991 0.0000 0.0000 1750.1382 -7699.9711 295.5401 -9450.1093 -7577.5089 299.5502 -667.3320 -605.1269 30842.9677 24.7139 95.9711
ENERGY: 1500000 0.9183 5.3491 0.1159 0.0000 -10845.1811 1499.4766 0.0000 0.0000 1751.8451 -7587.4760 295.8284 -9339.3211 -7568.0600 299.8114 365.1413 411.5299 30467.7657 8.7169 75.4849
TCL: Running FEP window   6: Lambda1 0.25   Lambda2 0.3    [dLambda 0.04999999999999999]
TCL: Setting parameter firsttimestep to 0
TCL: Setting parameter alchLambda to 0.25
Info: NONBONDED TABLE R-SQUARED SPACING: 0.0625
Info: NONBONDED TABLE SIZE: 705 POINTS
TCL: Setting parameter alchLambda2 to 0.3
Info: NONBONDED TABLE R-SQUARED SPACING: 0.0625
Info: NONBONDED TABLE SIZE: 705 POINTS
TCL: Running for 1500000 steps
ETITLE: TS BOND ANGLE DIHED IMPRP ELECT VDW BOUNDARY MISC KINETIC TOTAL TEMP POTENTIAL TOTALAVG TEMPAVG PRESSURE GPRESSURE VOLUME PRESSAVG GPRESSAVG
ENERGY: 0 0.9183 5.3491 0.1159 0.0000 -10845.1804 1501.1251 0.0000 0.0000 1750.9331 -7586.7389 295.6744 -9337.6720 -7586.7389 295.6744 343.0524 424.3895 30467.7657 343.0524 424.3895
ENERGY: 300000 0.0079 4.0388 0.6192 0.0000 -10816.9661 1455.3842 0.0000 0.0000 1755.6933 -7601.2227 296.4782 -9356.9161 -7593.4953 297.6087 140.9094 178.4159 30234.5476 -93.2995 -4.9776
ENERGY: 600000 1.2688 3.3021 0.3514 0.0000 -10655.4554 1337.9210 0.0000 0.0000 1763.8007 -7548.8114 297.8473 -9312.6121 -7594.2866 296.7699 -731.1516 -714.8346 30440.6432 -166.0238 -101.3676
ENERGY: 900000 1.4901 4.1121 0.4922 0.0000 -10790.0507 1401.9070 0.0000 0.0000 1754.0682 -7627.9811 296.2038 -9382.0494 -7609.3330 296.8834 -633.9459 -544.0089 30564.9645 -247.2558 -179.4728
ENERGY: 1200000 1.4060 4.8058 0.0775 0.0000 -10858.2939 1494.4232 0.0000 0.0000 1722.5394 -7635.0419 290.8796 -9357.5814 -7600.9357 296.7772 -17.3925 61.7221 30813.7283 -201.4289 -135.5918
ENERGY: 1500000 1.4953 5.2925 0.4276 0.0000 -10797.9846 1440.7491 0.0000 0.0000 1745.6512 -7604.3689 294.7824 -9350.0201 -7593.2508 296.7973 -161.5068 -81.6095 30563.8114 -233.8082 -167.0107
TCL: Running FEP window   7: Lambda1 0.3    Lambda2 0.35   [dLambda 0.04999999999999999]
TCL: Setting parameter firsttimestep to 0
TCL: Setting parameter alchLambda to 0.3
Info: NONBONDED TABLE R-SQUARED SPACING: 0.0625
Info: NONBONDED TABLE SIZE: 705 POINTS
TCL: Setting parameter alchLambda2 to 0.35
Info: NONBONDED TABLE R-SQUARED SPACING: 0.0625
Info: NONBONDED TABLE SIZE: 705 POINTS
TCL: Running for 1500000 steps
ETITLE: TS BOND ANGLE DIHED IMPRP ELECT VDW BOUNDARY MISC KINETIC TOTAL TEMP POTENTIAL TOTALAVG TEMPAVG PRESSURE GPRESSURE VOLUME PRESSAVG GPRESSAVG
ENERGY: 0 1.4953 5.2925 0.4276 0.0000 -10797.9868 1440.8011 0.0000 0.0000 1744.7538 -7605.2166 294.6309 -9349.9703 -7605.2166 294.6309 -170.9525 -76.3100 30563.8114 -170.9525 -76.3100
ENERGY: 300000 0.7636 6.7298 0.2647 0.0000 -10839.6892 1537.0542 0.0000 0.0000 1804.4988 -7490.3781 304.7198 -9294.8769 -7557.3971 299.5231 806.4965 813.1716 30630.4218 40.2864 98.9048
ENERGY: 600000 0.5401 5.9421 0.2096 0.0000 -10704.6362 1389.1804 0.0000 0.0000 1820.5425 -7488.2215 307.4291 -9308.7640 -7551.6888 300.3623 -227.8947 -147.1176 30709.2147 93.1208 153.6727
ENERGY: 900000 1.0295 3.1248 0.8393 0.0000 -10737.5965 1383.5082 0.0000 0.0000 1856.7678 -7492.3268 313.5463 -9349.0947 -7542.6365 301.5663 -501.1260 -462.3911 30729.4461 10.0270 65.6456
ENERGY: 1200000 0.6210 4.5135 0.9594 0.0000 -10834.9066 1509.7657 0.0000 0.0000 1783.8315 -7535.2155 301.2298 -9319.0470 -7542.9783 300.9384 494.9033 596.6975 30481.3597 86.3993 152.7428
ENERGY: 1500000 0.4755 4.5887 0.3973 0.0000 -10801.0265 1449.9064 0.0000 0.0000 1748.7205 -7596.9381 295.3007 -9345.6586 -7554.5890 300.2963 -95.7534 -36.2647 30617.5779 52.3554 115.3591
TCL: Running FEP window   8: Lambda1 0.35   Lambda2 0.39999999999999997 [dLambda 0.04999999999999999]
TCL: Setting parameter firsttimestep to 0
TCL: Setting parameter alchLambda to 0.35
Info: NONBONDED TABLE R-SQUARED SPACING: 0.0625
Info: NONBONDED TABLE SIZE: 705 POINTS
TCL: Setting parameter alchLambda2 to 0.39999999999999997
Info: NONBONDED TABLE R-SQUARED SPACING: 0.0625
Info: NONBONDED TABLE SIZE: 705 POINTS
TCL: Running for 1500000 steps
ETITLE: TS BOND ANGLE DIHED IMPRP ELECT VDW BOUNDARY MISC KINETIC TOTAL TEMP POTENTIAL TOTALAVG TEMPAVG PRESSURE GPRESSURE VOLUME PRESSAVG GPRESSAVG
ENERGY: 0 0.4755 4.5887 0.3973 0.0000 -10801.0260 1449.4317 0.0000 0.0000 1747.8250 -7598.3079 295.1495 -9346.1328 -7598.3079 295.1495 -124.1834 -34.1775 30617.5779 -124.1834 -34.1775
ENERGY: 300000 0.3870 4.1593 0.8255 0.0000 -10781.1729 1469.0543 0.0000 0.0000 1773.7066 -7533.0404 299.5201 -9306.7470 -7590.5514 298.4299 -90.4517 0.4760 30960.7203 -401.4856 -338.4998
ENERGY: 600000 0.9682 2.0021 0.4263 0.0000 -10725.3893 1414.5803 0.0000 0.0000 1689.4066 -7618.0057 285.2846 -9307.4123 -7570.0659 298.1767 -362.8832 -315.6009 30626.6655 -92.8710 -27.1720
ENERGY: 900000 0.6964 3.9228 0.7173 0.0000 -10805.3368 1447.5343 0.0000 0.0000 1756.9298 -7595.5361 296.6870 -9352.4660 -7566.5146 299.0504 -425.0989 -304.8556 30965.4478 -11.5230 56.5129
ENERGY: 1200000 0.5671 5.1106 1.3909 0.0000 -10836.6203 1462.1251 0.0000 0.0000 1716.9683 -7650.4582 289.9389 -9367.4266 -7565.7594 299.8076 -101.6462 -39.5842 30735.4333 -37.0146 29.1044
ENERGY: 1500000 0.1930 2.8954 0.4364 0.0000 -10864.9476 1507.2655 0.0000 0.0000 1723.2432 -7630.9142 290.9985 -9354.1574 -7575.0835 299.4297 502.1735 519.2979 30464.9199 -49.4004 12.1199
TCL: Running FEP window   9: Lambda1 0.39999999999999997 Lambda2 0.44999999999999996 [dLambda 0.04999999999999999]
TCL: Setting parameter firsttimestep to 0
TCL: Setting parameter alchLambda to 0.39999999999999997
Info: NONBONDED TABLE R-SQUARED SPACING: 0.0625
Info: NONBONDED TABLE SIZE: 705 POINTS
TCL: Setting parameter alchLambda2 to 0.44999999999999996
Info: NONBONDED TABLE R-SQUARED SPACING: 0.0625
Info: NONBONDED TABLE SIZE: 705 POINTS
TCL: Running for 1500000 steps
ETITLE: TS BOND ANGLE DIHED IMPRP ELECT VDW BOUNDARY MISC KINETIC TOTAL TEMP POTENTIAL TOTALAVG TEMPAVG PRESSURE GPRESSURE VOLUME PRESSAVG GPRESSAVG
ENERGY: 0 0.1930 2.8954 0.4364 0.0000 -10864.9473 1507.5056 0.0000 0.0000 1722.3536 -7631.5634 290.8482 -9353.9170 -7631.5634 290.8482 432.4482 523.3737 30464.9199 432.4482 523.3737
ENERGY: 300000 0.9980 4.7772 0.1735 0.0000 -10890.5015 1487.6358 0.0000 0.0000 1809.7747 -7587.1424 305.6108 -9396.9171 -7601.1496 300.4214 -53.5940 46.6603 30968.2670 89.6067 166.9684
ENERGY: 600000 0.5328 3.1806 0.2788 0.0000 -10892.1818 1538.5646 0.0000 0.0000 1693.9345 -7655.6904 286.0492 -9349.6250 -7596.8269 298.9905 365.5605 440.7127 31079.1352 265.5524 336.3173
ENERGY: 900000 0.4902 4.5108 0.0872 0.0000 -10781.0559 1459.1874 0.0000 0.0000 1799.8291 -7516.9512 303.9313 -9316.7803 -7584.6040 300.0255 26.4633 58.5377 30898.4422 223.8491 283.9038
ENERGY: 1200000 0.6902 4.5134 0.8125 0.0000 -10788.9204 1443.3919 0.0000 0.0000 1812.9894 -7526.5231 306.1536 -9339.5124 -7578.9025 300.0313 -81.0688 15.0386 30839.0989 163.5638 224.6878
ENERGY: 1500000 0.5148 6.3933 0.8955 0.0000 -10727.5769 1447.0906 0.0000 0.0000 1798.5251 -7474.1576 303.7111 -9272.6827 -7572.5205 300.2463 238.1878 271.2465 30579.1295 65.5488 128.3209
TCL: Running FEP window  10: Lambda1 0.44999999999999996 Lambda2 0.49999999999999994 [dLambda 0.04999999999999999]
TCL: Setting parameter firsttimestep to 0
TCL: Setting parameter alchLambda to 0.44999999999999996
Info: NONBONDED TABLE R-SQUARED SPACING: 0.0625
Info: NONBONDED TABLE SIZE: 705 POINTS
TCL: Setting parameter alchLambda2 to 0.49999999999999994
Info: NONBONDED TABLE R-SQUARED SPACING: 0.0625
Info: NONBONDED TABLE SIZE: 705 POINTS
TCL: Running for 1500000 steps
ETITLE: TS BOND ANGLE DIHED IMPRP ELECT VDW BOUNDARY MISC KINETIC TOTAL TEMP POTENTIAL TOTALAVG TEMPAVG PRESSURE GPRESSURE VOLUME PRESSAVG GPRESSAVG
ENERGY: 0 0.5148 6.3933 0.8955 0.0000 -10727.5790 1446.9981 0.0000 0.0000 1797.6620 -7475.1153 303.5653 -9272.7774 -7475.1153 303.5653 194.5978 274.5706 30579.1295 194.5978 274.5706
ENERGY: 300000 0.1143 6.2608 0.8130 0.0000 -10865.7299 1465.9436 0.0000 0.0000 1732.0733 -7660.5248 292.4896 -9392.5981 -7562.5376 298.8482 61.8745 182.7068 30272.9931 -139.2603 -67.1959
ENERGY: 600000 0.9799 3.0842 0.1619 0.0000 -10938.5917 1489.7689 0.0000 0.0000 1853.4719 -7591.1249 312.9898 -9444.5968 -7591.5273 299.1269 208.3875 297.0635 30191.3831 -107.1002 -35.6135
ENERGY: 900000 1.0722 6.7187 0.1207 0.0000 -10752.0852 1418.1039 0.0000 0.0000 1782.0485 -7544.0212 300.9287 -9326.0696 -7577.9634 299.4055 -53.3582 5.3936 30470.7064 -113.3975 -42.0992
ENERGY: 1200000 2.5994 3.4527 0.3701 0.0000 -10912.0597 1548.2955 0.0000 0.0000 1787.0860 -7570.2560 301.7794 -9357.3421 -7568.8165 299.9112 534.9594 615.5226 30645.7616 -115.5034 -47.3189
ENERGY: 1500000 1.9569 4.9445 0.3863 0.0000 -10851.5041 1464.8276 0.0000 0.0000 1717.8432 -7661.5456 290.0866 -9379.3888 -7572.9291 299.3417 -121.0965 -52.0178 30638.8298 -91.8145 -21.6863
TCL: Running FEP window  11: Lambda1 0.49999999999999994 Lambda2 0.5499999999999999 [dLambda 0.04999999999999999]
TCL: Setting parameter firsttimestep to 0
TCL: Setting parameter alchLambda to 0.49999999999999994
Info: NONBONDED TABLE R-SQUARED SPACING: 0.0625
Info: NONBONDED TABLE SIZE: 705 POINTS
TCL: Setting parameter alchLambda2 to 0.5499999999999999
Info: NONBONDED TABLE R-SQUARED SPACING: 0.0625
Info: NONBONDED TABLE SIZE: 705 POINTS
TCL: Running for 1500000 steps
ETITLE: TS BOND ANGLE DIHED IMPRP ELECT VDW BOUNDARY MISC KINETIC TOTAL TEMP POTENTIAL TOTALAVG TEMPAVG PRESSURE GPRESSURE VOLUME PRESSAVG GPRESSAVG
ENERGY: 0 1.9569 4.9445 0.3863 0.0000 -10851.5046 1464.4254 0.0000 0.0000 1716.9629 -7662.8286 289.9379 -9379.7915 -7662.8286 289.9379 -144.5619 -50.0673 30638.8298 -144.5619 -50.0673
ENERGY: 300000 0.9721 3.2499 0.3251 0.0000 -10697.0423 1392.3354 0.0000 0.0000 1814.1747 -7485.9851 306.3538 -9300.1599 -7541.7005 299.0660 -517.8168 -465.9493 31162.7809 -258.9067 -202.8319
ENERGY: 600000 0.1192 1.6199 0.2452 0.0000 -10844.2429 1487.5736 0.0000 0.0000 1710.6266 -7644.0584 288.8679 -9354.6850 -7570.6343 297.2055 327.0570 352.4486 30489.0759 -29.1438 32.1184
ENERGY: 900000 0.0647 3.3929 1.0128 0.0000 -10928.8893 1526.5917 0.0000 0.0000 1727.8399 -7669.9873 291.7747 -9397.8272 -7581.0655 297.4519 598.3709 632.2154 30132.4512 17.0595 77.7570
ENERGY: 1200000 0.4535 1.7170 0.2947 0.0000 -10782.5585 1417.6859 0.0000 0.0000 1783.9795 -7578.4279 301.2548 -9362.4073 -7586.6833 297.6583 -580.5400 -530.4250 31175.5237 -50.6492 8.9250
ENERGY: 1500000 0.3791 3.9944 1.4882 0.0000 -10780.2390 1436.0404 0.0000 0.0000 1779.4083 -7558.9285 300.4829 -9338.3368 -7586.2032 297.9389 -268.7541 -234.8167 31039.6389 32.2950 84.5979
TCL: Running FEP window  12: Lambda1 0.5499999999999999 Lambda2 0.6    [dLambda 0.050000000000000044]
TCL: Setting parameter firsttimestep to 0
TCL: Setting parameter alchLambda to 0.5499999999999999
Info: NONBONDED TABLE R-SQUARED SPACING: 0.0625
Info: NONBONDED TABLE SIZE: 705 POINTS
TCL: Setting parameter alchLambda2 to 0.6
Info: NONBONDED TABLE R-SQUARED SPACING: 0.0625
Info: NONBONDED TABLE SIZE: 705 POINTS
TCL: Running for 1500000 steps
ETITLE: TS BOND ANGLE DIHED IMPRP ELECT VDW BOUNDARY MISC KINETIC TOTAL TEMP POTENTIAL TOTALAVG TEMPAVG PRESSURE GPRESSURE VOLUME PRESSAVG GPRESSAVG
ENERGY: 0 0.3791 3.9944 1.4882 0.0000 -10780.1691 1435.8839 0.0000 0.0000 1778.5124 -7559.9111 300.3316 -9338.4235 -7559.9111 300.3316 -303.7821 -231.6023 31039.6389 -303.7821 -231.6023
ENERGY: 300000 0.2683 3.7836 0.1870 0.0000 -10822.8305 1415.6114 0.0000 0.0000 1761.9912 -7640.9889 297.5417 -9402.9801 -7573.9303 302.0875 -323.8657 -268.3759 30497.6662 -529.7617 -482.7856
ENERGY: 600000 0.2000 9.1747 0.8067 0.0000 -10719.3244 1426.0383 0.0000 0.0000 1797.2402 -7485.8645 303.4941 -9283.1048 -7569.9163 299.8852 -58.8160 15.8594 30549.7375 -296.2115 -234.9644
ENERGY: 900000 0.1687 4.3044 1.5305 0.0000 -10896.8664 1477.8020 0.0000 0.0000 1772.5653 -7640.4954 299.3273 -9413.0607 -7568.9548 300.4805 -122.4262 -65.6810 30773.0977 -273.3740 -214.2304
ENERGY: 1200000 1.0277 3.5424 1.2592 0.0000 -10867.0444 1449.7941 0.0000 0.0000 1783.9949 -7627.4260 301.2574 -9411.4209 -7566.7569 301.3476 -320.2250 -252.7121 30615.8896 -267.1563 -208.1341
ENERGY: 1500000 0.1721 3.6348 1.4721 0.0000 -10747.7486 1405.2757 0.0000 0.0000 1810.7455 -7526.4485 305.7747 -9337.1940 -7562.4938 301.3714 -157.8828 -170.8302 30427.5794 -295.6247 -246.4370
TCL: Running FEP window  13: Lambda1 0.6    Lambda2 0.65   [dLambda 0.050000000000000044]
TCL: Setting parameter firsttimestep to 0
TCL: Setting parameter alchLambda to 0.6
Info: NONBONDED TABLE R-SQUARED SPACING: 0.0625
Info: NONBONDED TABLE SIZE: 705 POINTS
TCL: Setting parameter alchLambda2 to 0.65
Info: NONBONDED TABLE R-SQUARED SPACING: 0.0625
Info: NONBONDED TABLE SIZE: 705 POINTS
TCL: Running for 1500000 steps
ETITLE: TS BOND ANGLE DIHED IMPRP ELECT VDW BOUNDARY MISC KINETIC TOTAL TEMP POTENTIAL TOTALAVG TEMPAVG PRESSURE GPRESSURE VOLUME PRESSAVG GPRESSAVG
ENERGY: 0 0.1721 3.6348 1.4721 0.0000 -10747.9542 1405.1686 0.0000 0.0000 1809.8533 -7527.6532 305.6240 -9337.5066 -7527.6532 305.6240 -243.0369 -166.0136 30427.5794 -243.0369 -166.0136
ENERGY: 300000 1.3084 3.3201 1.0397 0.0000 -10698.3695 1432.7844 0.0000 0.0000 1744.0347 -7515.8821 294.5095 -9259.9168 -7514.8264 302.9314 -236.0280 -207.3944 31358.6326 -214.5128 -155.1114
ENERGY: 600000 1.3796 4.6163 1.1815 0.0000 -10626.3346 1306.2046 0.0000 0.0000 1865.3891 -7447.5635 315.0022 -9312.9526 -7520.3128 305.2346 -992.0424 -905.9040 30826.3508 -318.0173 -255.6793
ENERGY: 900000 0.3628 4.0913 0.8263 0.0000 -10707.1502 1355.0399 0.0000 0.0000 1777.3096 -7569.5203 300.1285 -9346.8299 -7533.8823 303.7671 -963.3146 -856.5204 31068.9188 -348.0442 -282.3456
ENERGY: 1200000 1.5933 5.3661 2.1254 0.0000 -10800.7040 1454.1284 0.0000 0.0000 1740.5443 -7596.9465 293.9200 -9337.4908 -7544.3991 302.0808 -39.2486 108.4706 30516.5046 -293.7040 -214.9696
ENERGY: 1500000 0.8344 2.2045 0.2101 0.0000 -10794.3209 1475.7021 0.0000 0.0000 1739.8572 -7575.5127 293.8040 -9315.3699 -7545.1301 301.6740 385.3694 437.5662 30788.9138 -197.6613 -118.2560
TCL: Running FEP window  14: Lambda1 0.65   Lambda2 0.7000000000000001 [dLambda 0.050000000000000044]
TCL: Setting parameter firsttimestep to 0
TCL: Setting parameter alchLambda to 0.65
Info: NONBONDED TABLE R-SQUARED SPACING: 0.0625
Info: NONBONDED TABLE SIZE: 705 POINTS
TCL: Setting parameter alchLambda2 to 0.7000000000000001
Info: NONBONDED TABLE R-SQUARED SPACING: 0.0625
Info: NONBONDED TABLE SIZE: 705 POINTS
TCL: Running for 1500000 steps
ETITLE: TS BOND ANGLE DIHED IMPRP ELECT VDW BOUNDARY MISC KINETIC TOTAL TEMP POTENTIAL TOTALAVG TEMPAVG PRESSURE GPRESSURE VOLUME PRESSAVG GPRESSAVG
ENERGY: 0 0.8344 2.2045 0.2101 0.0000 -10794.6315 1475.5275 0.0000 0.0000 1738.9572 -7576.8978 293.6520 -9315.8550 -7576.8978 293.6520 362.3216 438.5088 30788.9138 362.3216 438.5088
ENERGY: 300000 0.6730 5.1728 0.6996 0.0000 -10895.2750 1506.8966 0.0000 0.0000 1796.1719 -7585.6612 303.3137 -9381.8331 -7576.6504 299.2272 884.5416 957.7042 29884.2344 496.7146 572.4425
ENERGY: 600000 0.0933 2.7750 0.0963 0.0000 -10757.8159 1464.4746 0.0000 0.0000 1770.5667 -7519.8100 298.9898 -9290.3767 -7551.8489 300.3595 131.4889 204.1969 30877.3368 376.9969 445.2290
ENERGY: 900000 0.7624 2.9546 1.7371 0.0000 -10766.5483 1427.7795 0.0000 0.0000 1813.7017 -7519.6131 306.2739 -9333.3149 -7547.4113 300.9263 -99.2993 -15.6815 30655.2358 260.3560 325.0194
ENERGY: 1200000 0.4953 3.3365 0.5134 0.0000 -10942.1216 1559.6303 0.0000 0.0000 1796.3684 -7581.7778 303.3469 -9378.1461 -7556.0221 301.0817 735.1236 830.1854 30497.6215 281.7897 348.8464
ENERGY: 1500000 0.8224 3.2451 1.2634 0.0000 -10697.0624 1399.2789 0.0000 0.0000 1794.7042 -7497.7483 303.0659 -9292.4525 -7560.1552 300.8615 -251.7383 -218.4505 30948.9622 228.9389 291.4741
TCL: Running FEP window  15: Lambda1 0.7000000000000001 Lambda2 0.7500000000000001 [dLambda 0.050000000000000044]
TCL: Setting parameter firsttimestep to 0
TCL: Setting parameter alchLambda to 0.7000000000000001
Info: NONBONDED TABLE R-SQUARED SPACING: 0.0625
Info: NONBONDED TABLE SIZE: 705 POINTS
TCL: Setting parameter alchLambda2 to 0.7500000000000001
Info: NONBONDED TABLE R-SQUARED SPACING: 0.0625
Info: NONBONDED TABLE SIZE: 705 POINTS
TCL: Running for 1500000 steps
ETITLE: TS BOND ANGLE DIHED IMPRP ELECT VDW BOUNDARY MISC KINETIC TOTAL TEMP POTENTIAL TOTALAVG TEMPAVG PRESSURE GPRESSURE VOLUME PRESSAVG GPRESSAVG
ENERGY: 0 0.8224 3.2451 1.2634 0.0000 -10697.1584 1399.4088 0.0000 0.0000 1793.8185 -7498.6001 302.9163 -9292.4186 -7498.6001 302.9163 -287.6311 -209.2857 30948.9622 -287.6311 -209.2857
ENERGY: 300000 0.6860 4.5604 1.1048 0.0000 -10740.5042 1473.2801 0.0000 0.0000 1764.6326 -7496.2402 297.9878 -9260.8728 -7535.4210 300.9373 -32.9293 -7.6797 31441.5341 -34.6594 23.3041
ENERGY: 600000 0.4126 7.3140 0.2086 0.0000 -10777.6344 1415.5943 0.0000 0.0000 1732.4304 -7621.6744 292.5499 -9354.1048 -7548.2538 300.0672 -291.5706 -244.3980 30683.8433 -139.9750 -94.3123
ENERGY: 900000 0.4328 4.0179 0.2823 0.0000 -10815.8365 1447.0433 0.0000 0.0000 1761.6755 -7602.3848 297.4884 -9364.0603 -7567.3616 300.0008 -236.7553 -200.3050 30829.5373 -91.1519 -41.2982
ENERGY: 1200000 0.0632 5.3197 0.8759 0.0000 -10879.8686 1548.0480 0.0000 0.0000 1782.2542 -7543.3076 300.9635 -9325.5619 -7567.1099 299.9223 683.9052 700.4345 30810.1761 69.0255 115.0966
ENERGY: 1500000 0.3319 5.0806 0.3045 0.0000 -10727.4478 1398.7449 0.0000 0.0000 1780.1718 -7542.8141 300.6118 -9322.9859 -7559.7428 299.5956 -196.2901 -106.9933 30220.8618 143.7804 193.0020
TCL: Running FEP window  16: Lambda1 0.7500000000000001 Lambda2 0.8000000000000002 [dLambda 0.050000000000000044]
TCL: Setting parameter firsttimestep to 0
TCL: Setting parameter alchLambda to 0.7500000000000001
Info: NONBONDED TABLE R-SQUARED SPACING: 0.0625
Info: NONBONDED TABLE SIZE: 705 POINTS
TCL: Setting parameter alchLambda2 to 0.8000000000000002
Info: NONBONDED TABLE R-SQUARED SPACING: 0.0625
Info: NONBONDED TABLE SIZE: 705 POINTS
TCL: Running for 1500000 steps
ETITLE: TS BOND ANGLE DIHED IMPRP ELECT VDW BOUNDARY MISC KINETIC TOTAL TEMP POTENTIAL TOTALAVG TEMPAVG PRESSURE GPRESSURE VOLUME PRESSAVG GPRESSAVG
ENERGY: 0 0.3319 5.0806 0.3045 0.0000 -10727.3730 1398.6952 0.0000 0.0000 1779.3176 -7543.6431 300.4676 -9322.9608 -7543.6431 300.4676 -182.7119 -100.7743 30220.8618 -182.7119 -100.7743
ENERGY: 300000 0.1349 6.1185 1.0972 0.0000 -10727.6395 1395.5072 0.0000 0.0000 1765.4940 -7559.2876 298.1332 -9324.7816 -7548.6785 301.2372 -318.2404 -201.5397 30655.3357 -287.4173 -224.6682
ENERGY: 600000 0.9244 1.9370 0.2656 0.0000 -10813.8867 1417.3695 0.0000 0.0000 1783.9106 -7609.4797 301.2432 -9393.3903 -7559.6917 301.1307 -437.0990 -365.2671 30608.1299 -234.7163 -164.2119
ENERGY: 900000 0.0455 2.4870 0.5043 0.0000 -10812.2152 1460.4948 0.0000 0.0000 1749.6313 -7599.0522 295.4545 -9348.6835 -7572.4742 299.1693 112.9484 234.9543 30303.1667 -167.7995 -103.3680
ENERGY: 1200000 0.0664 5.9080 2.0462 0.0000 -10836.4603 1508.3996 0.0000 0.0000 1823.6208 -7496.4193 307.9489 -9320.0401 -7559.8864 300.9878 586.4174 719.1170 30335.0536 -47.0305 12.3182
ENERGY: 1500000 0.8995 3.3217 1.2616 0.0000 -10835.5806 1440.9918 0.0000 0.0000 1747.2387 -7641.8673 295.0505 -9389.1060 -7568.5497 300.3478 -59.5648 -0.6760 30200.6684 -56.0848 -2.6494
TCL: Running FEP window  17: Lambda1 0.8000000000000002 Lambda2 0.8500000000000002 [dLambda 0.050000000000000044]
TCL: Setting parameter firsttimestep to 0
TCL: Setting parameter alchLambda to 0.8000000000000002
Info: NONBONDED TABLE R-SQUARED SPACING: 0.0625
Info: NONBONDED TABLE SIZE: 705 POINTS
TCL: Setting parameter alchLambda2 to 0.8500000000000002
Info: NONBONDED TABLE R-SQUARED SPACING: 0.0625
Info: NONBONDED TABLE SIZE: 705 POINTS
TCL: Running for 1500000 steps
ETITLE: TS BOND ANGLE DIHED IMPRP ELECT VDW BOUNDARY MISC KINETIC TOTAL TEMP POTENTIAL TOTALAVG TEMPAVG PRESSURE GPRESSURE VOLUME PRESSAVG GPRESSAVG
ENERGY: 0 0.8995 3.3217 1.2616 0.0000 -10835.7796 1441.1728 0.0000 0.0000 1746.3639 -7642.7601 294.9028 -9389.1240 -7642.7601 294.9028 -85.3275 11.0560 30200.6684 -85.3275 11.0560
ENERGY: 300000 0.1274 2.7482 0.2341 0.0000 -10819.5057 1489.3025 0.0000 0.0000 1782.4306 -7544.6629 300.9932 -9327.0935 -7595.6107 299.1648 118.1288 202.3089 31276.8153 -116.2698 -42.9036
ENERGY: 600000 0.5643 6.0093 0.1142 0.0000 -10734.0946 1411.3501 0.0000 0.0000 1741.4975 -7574.5593 294.0810 -9316.0568 -7596.7175 297.4211 -338.9987 -293.0595 30833.2310 -236.9737 -173.4406
ENERGY: 900000 0.5924 6.6858 0.0926 0.0000 -10698.3878 1452.5192 0.0000 0.0000 1810.5888 -7427.9091 305.7482 -9238.4978 -7571.7175 298.3438 259.1652 339.7770 31036.7885 -196.6017 -130.1576
ENERGY: 1200000 1.3252 5.6266 0.4260 0.0000 -10738.2908 1351.3639 0.0000 0.0000 1757.0902 -7622.4589 296.7141 -9379.5491 -7565.8882 299.5343 -1049.3942 -989.6699 30892.3392 -213.9025 -146.1815
ENERGY: 1500000 3.9505 4.7790 0.4543 0.0000 -10866.7450 1483.7859 0.0000 0.0000 1786.6737 -7587.1017 301.7098 -9373.7753 -7573.0033 299.3674 146.9347 168.4398 30777.0253 -149.5473 -80.5501
TCL: Running FEP window  18: Lambda1 0.8500000000000002 Lambda2 0.9000000000000002 [dLambda 0.050000000000000044]
TCL: Setting parameter firsttimestep to 0
TCL: Setting parameter alchLambda to 0.8500000000000002
Info: NONBONDED TABLE R-SQUARED SPACING: 0.0625
Info: NONBONDED TABLE SIZE: 705 POINTS
TCL: Setting parameter alchLambda2 to 0.9000000000000002
Info: NONBONDED TABLE R-SQUARED SPACING: 0.0625
Info: NONBONDED TABLE SIZE: 705 POINTS
TCL: Running for 1500000 steps
ETITLE: TS BOND ANGLE DIHED IMPRP ELECT VDW BOUNDARY MISC KINETIC TOTAL TEMP POTENTIAL TOTALAVG TEMPAVG PRESSURE GPRESSURE VOLUME PRESSAVG GPRESSAVG
ENERGY: 0 3.9505 4.7790 0.4543 0.0000 -10867.2989 1484.1494 0.0000 0.0000 1785.8194 -7588.1463 301.5655 -9373.9657 -7588.1463 301.5655 87.0448 181.7051 30777.0253 87.0448 181.7051
ENERGY: 300000 0.5778 3.4727 1.9436 0.0000 -10756.5224 1427.9481 0.0000 0.0000 1799.3909 -7523.1894 303.8573 -9322.5803 -7534.5305 299.2671 -116.7475 -96.9358 30830.4271 -59.9314 1.4937
ENERGY: 600000 0.2981 2.2838 2.3230 0.0000 -10867.6802 1476.7880 0.0000 0.0000 1770.8798 -7615.1075 299.0427 -9385.9873 -7525.2782 298.6438 218.5559 318.9404 30173.0575 -5.5929 66.7048
ENERGY: 900000 0.7152 2.2928 0.3763 0.0000 -10761.2125 1410.2142 0.0000 0.0000 1761.7644 -7585.8496 297.5034 -9347.6140 -7546.5619 298.6257 -546.4928 -481.5523 30983.0298 -135.6314 -69.0765
ENERGY: 1200000 1.9719 3.2088 0.2054 0.0000 -11000.2508 1566.8559 0.0000 0.0000 1811.3447 -7616.6642 305.8759 -9428.0089 -7561.9402 299.3212 750.6778 780.7662 30507.4236 21.7559 87.3953
ENERGY: 1500000 0.2174 5.2827 0.5153 0.0000 -10988.9758 1533.8079 0.0000 0.0000 1790.3345 -7658.8182 302.3279 -9449.1527 -7569.5275 299.4344 444.4273 505.9408 30368.6367 25.3841 90.5156
TCL: Running FEP window  19: Lambda1 0.9000000000000002 Lambda2 0.9500000000000003 [dLambda 0.050000000000000044]
TCL: Setting parameter firsttimestep to 0
TCL: Setting parameter alchLambda to 0.9000000000000002
Info: NONBONDED TABLE R-SQUARED SPACING: 0.0625
Info: NONBONDED TABLE SIZE: 705 POINTS
TCL: Setting parameter alchLambda2 to 0.9500000000000003
Info: NONBONDED TABLE R-SQUARED SPACING: 0.0625
Info: NONBONDED TABLE SIZE: 705 POINTS
TCL: Running for 1500000 steps
ETITLE: TS BOND ANGLE DIHED IMPRP ELECT VDW BOUNDARY MISC KINETIC TOTAL TEMP POTENTIAL TOTALAVG TEMPAVG PRESSURE GPRESSURE VOLUME PRESSAVG GPRESSAVG
ENERGY: 0 0.2174 5.2827 0.5153 0.0000 -10989.2638 1533.6145 0.0000 0.0000 1789.4473 -7660.1867 302.1781 -9449.6340 -7660.1867 302.1781 436.4001 512.4445 30368.6367 436.4001 512.4445
ENERGY: 300000 0.6916 6.3908 1.5554 0.0000 -10839.0347 1450.7481 0.0000 0.0000 1842.6781 -7536.9708 311.1670 -9379.6489 -7601.2391 306.1590 -114.5230 0.8578 30405.0356 -2.2822 81.7637
ENERGY: 600000 0.2507 4.3922 0.4254 0.0000 -10806.0862 1445.9435 0.0000 0.0000 1749.9014 -7605.1730 295.5002 -9355.0744 -7607.2155 303.1222 -190.5858 -86.3675 30914.3836 32.4374 116.1955
ENERGY: 900000 0.6438 7.0420 0.4679 0.0000 -10836.6510 1435.7272 0.0000 0.0000 1765.9459 -7626.8241 298.2095 -9392.7701 -7606.0253 302.3582 -283.3034 -189.5395 30482.5926 -55.1499 27.1427
ENERGY: 1200000 0.9120 3.4399 2.9680 0.0000 -10826.1047 1467.9476 0.0000 0.0000 1778.3066 -7572.5305 300.2968 -9350.8371 -7601.5473 301.5691 415.5430 503.8072 30327.0933 18.0177 97.6126
ENERGY: 1500000 1.8732 4.4577 0.2621 0.0000 -10828.3004 1444.0245 0.0000 0.0000 1708.1688 -7669.5140 288.4529 -9377.6829 -7602.2258 300.8988 -337.5673 -288.9692 30792.4394 53.3573 129.5434
TCL: Running FEP window  20: Lambda1 0.9500000000000003 Lambda2 1.0    [dLambda 0.04999999999999971]
TCL: Setting parameter firsttimestep to 0
TCL: Setting parameter alchLambda to 0.9500000000000003
Info: NONBONDED TABLE R-SQUARED SPACING: 0.0625
Info: NONBONDED TABLE SIZE: 705 POINTS
TCL: Setting parameter alchLambda2 to 1.0
Info: NONBONDED TABLE R-SQUARED SPACING: 0.0625
Info: NONBONDED TABLE SIZE: 705 POINTS
TCL: Running for 1500000 steps
ETITLE: TS BOND ANGLE DIHED IMPRP ELECT VDW BOUNDARY MISC KINETIC TOTAL TEMP POTENTIAL TOTALAVG TEMPAVG PRESSURE GPRESSURE VOLUME PRESSAVG GPRESSAVG
ENERGY: 0 1.8732 4.4577 0.2621 0.0000 -10828.5777 1443.6250 0.0000 0.0000 1707.3124 -7671.0473 288.3083 -9378.3597 -7671.0473 288.3083 -366.6459 -285.0201 30792.4394 -366.6459 -285.0201
ENERGY: 300000 1.5161 2.7571 0.4039 0.0000 -10847.2013 1459.9196 0.0000 0.0000 1806.8340 -7575.7706 305.1142 -9382.6046 -7562.8885 300.8063 195.9892 258.1521 30260.5827 -66.3511 -8.6178
ENERGY: 600000 0.0964 1.6818 0.7115 0.0000 -10817.2395 1505.8463 0.0000 0.0000 1783.0399 -7525.8636 301.0961 -9308.9035 -7535.6546 299.4525 236.4989 355.9393 31225.2805 -111.6994 -41.9921
ENERGY: 900000 0.4980 5.1456 0.6036 0.0000 -10712.2226 1414.0196 0.0000 0.0000 1757.3219 -7534.6338 296.7532 -9291.9557 -7518.6085 299.8225 -393.8174 -269.7126 31014.8941 -160.0689 -88.2547
ENERGY: 1200000 0.1443 4.9823 0.6508 0.0000 -10769.5163 1427.0787 0.0000 0.0000 1783.9187 -7552.7416 301.2445 -9336.6603 -7526.8011 299.9903 -108.5800 3.4984 30638.1062 -164.6504 -89.1483
ENERGY: 1500000 0.0362 3.8565 0.4663 0.0000 -10886.9172 1434.1019 0.0000 0.0000 1730.8597 -7717.5966 292.2846 -9448.4563 -7551.3666 299.1299 -390.1029 -273.6579 30470.1465 -151.7792 -71.3595
TCL: Exiting due to exit command.
