Info: SIMULATION PARAMETERS:
Info: TIMESTEP               2
Info: NUMBER OF STEPS        0
Info: STEPS PER CYCLE        10
Info: PERIODIC CELL BASIS 1  31.1743 0 0
Info: PERIODIC CELL BASIS 2  0 29.7442 0
Info: PERIODIC CELL BASIS 3  0 0 33.1199
Info: PERIODIC CELL CENTER   0 0 0
Info: WRAPPING WATERS AROUND PERIODIC BOUNDARIES ON OUTPUT.
Info: WRAPPING ALL CLUSTERS AROUND PERIODIC BOUNDARIES ON OUTPUT.
Info: FIRST LDB TIMESTEP     50
Info: LAST LDB TIMESTEP     -1
Info: HOM BACKGROUND SCALING 1
Info: PME BACKGROUND SCALING 1
Info: MIN ATOMS PER PATCH    40
Info: EMPTY PATCH LOAD       40 ATOMS
Info: VELOCITY FILE          mobley_20524_equil.vel
Info: CENTER OF MASS MOVING INITIALLY? NO
Info: DIELECTRIC             1
Info: EXCLUDE                SCALED ONE-FOUR
Info: 1-4 ELECTROSTATICS SCALED BY 0.833333
Info: MODIFIED 1-4 VDW PARAMETERS WILL BE USED
Info: DCD FILENAME           mobley_20524_prod.dcd
Info: DCD FREQUENCY          100000
Info: DCD FIRST STEP         100000
Info: DCD FILE WILL CONTAIN UNIT CELL DATA
Info: XST FILENAME           mobley_20524_prod.xst
Info: XST FREQUENCY          100000
Info: NO VELOCITY DCD OUTPUT
Info: NO FORCE DCD OUTPUT
Info: OUTPUT FILENAME        mobley_20524_prod
Info: BINARY OUTPUT FILES WILL BE USED
Info: RESTART FILENAME       mobley_20524_prod.restart
Info: RESTART FREQUENCY      100000
Info: BINARY RESTART FILES WILL BE USED
Info: CUTOFF                 9
Info: PAIRLIST DISTANCE      11
Info: PAIRLIST SHRINK RATE   0.01
Info: PAIRLIST GROW RATE     0.01
Info: PAIRLIST TRIGGER       0.3
Info: PAIRLISTS PER CYCLE    2
Info: PAIRLISTS ENABLED
Info: MARGIN                 2
Info: HYDROGEN GROUP CUTOFF  2.5
Info: PATCH DIMENSION        15.5
Info: ENERGY OUTPUT STEPS    100000
Info: ENERGY EVALUATION STEPS    100000
Info: OUTPUT ENERGY PRECISION 4
Info: CROSSTERM ENERGY INCLUDED IN DIHEDRAL
Info: TIMING OUTPUT STEPS    1000000
Info: PRESSURE OUTPUT STEPS  100000
Info: ALCHEMICAL FEP ON
Info: FEP CURRENT LAMBDA VALUE     1
Info: FEP COMPARISON LAMBDA VALUE  0.95
Info: FEP INTRA-ALCHEMICAL NON-BONDED INTERACTIONS WILL BE RETAINED
Info: FEP INTRA-ALCHEMICAL BONDED INTERACTIONS WILL BE RETAINED
Info: FEP VDW SHIFTING COEFFICIENT 5
Info: FEP ELEC. ACTIVE FOR ANNIHILATED PARTICLES BETWEEN LAMBDA = 0 AND LAMBDA = 0.5
Info: FEP ELEC. ACTIVE FOR EXNIHILATED PARTICLES BETWEEN LAMBDA = 0.5 AND LAMBDA = 1
Info: FEP VDW ACTIVE FOR ANNIHILATED PARTICLES BETWEEN LAMBDA = 0 AND LAMBDA = 1
Info: FEP VDW ACTIVE FOR EXNIHILATED PARTICLES BETWEEN LAMBDA = 0 AND LAMBDA = 1
Info: FEP BOND ACTIVE FOR ANNIHILATED PARTICLES BETWEEN LAMBDA = 1 AND LAMBDA = 1
Info: FEP BOND ACTIVE FOR EXNIHILATED PARTICLES BETWEEN LAMBDA = 0 AND LAMBDA = 0
Info: LANGEVIN DYNAMICS ACTIVE
Info: LANGEVIN TEMPERATURE   300
Info: LANGEVIN USING BBK INTEGRATOR
Info: LANGEVIN DAMPING COEFFICIENT IS 1 INVERSE PS
Info: LANGEVIN DYNAMICS APPLIED TO HYDROGENS
Info: LANGEVIN PISTON PRESSURE CONTROL ACTIVE
Info:        TARGET PRESSURE IS 1.01325 BAR
Info:     OSCILLATION PERIOD IS 50 FS
Info:             DECAY TIME IS 25 FS
Info:     PISTON TEMPERATURE IS 300 K
Info:       PRESSURE CONTROL IS GROUP-BASED
Info:    INITIAL STRAIN RATE IS -1.41332e-05 -1.41332e-05 -1.41332e-05
Info:       CELL FLUCTUATION IS ISOTROPIC
Info: PARTICLE MESH EWALD (PME) ACTIVE
Info: PME TOLERANCE               1e-06
Info: PME EWALD COEFFICIENT       0.348832
Info: PME INTERPOLATION ORDER     4
Info: PME GRID DIMENSIONS         32 32 36
Info: PME MAXIMUM GRID SPACING    1
Info: PME CALCULATION WILL BE PERFORMED ON GPU
Info: FULL ELECTROSTATIC EVALUATION FREQUENCY      2
Info: USING VERLET I (r-RESPA) MTS SCHEME.
Info: C1 SPLITTING OF LONG RANGE ELECTROSTATICS
Info: PLACING ATOMS IN PATCHES BY HYDROGEN GROUPS
Info: RIGID BONDS TO HYDROGEN : ALL
Info:         ERROR TOLERANCE : 1e-08
Info:          MAX ITERATIONS : 100
Info: RIGID WATER USING SETTLE ALGORITHM
Info: RANDOM NUMBER SEED     1742580960
Info: USE HYDROGEN BONDS?    NO
Info: Using AMBER format force field!
Info: AMBER PARM FILE        mobley_20524.prmtop
Info: COORDINATE PDB         mobley_20524.pdb
Info: Exclusions will be read from PARM file!
Info: SCNB (VDW SCALING)     2
Info: USING ARITHMETIC MEAN TO COMBINE L-J SIGMA PARAMETERS
Info: BINARY COORDINATES     mobley_20524_equil.coor
Info: SUMMARY OF PARAMETERS:
Info: 6 BONDS
Info: 4 ANGLES
Info:   4 HARMONIC
Info:   0 COSINE-BASED
Info: 3 DIHEDRAL
Info: 0 IMPROPER
Info: 0 CROSSTERM
Info: 0 VDW
Info: 21 VDW_PAIRS
Info: 0 NBTHOLE_PAIRS
Info: To read alchdata from file: mobley_20524.pdb
Info: To read alchflag data from column: 5
Info: STRUCTURE SUMMARY:
Info: 2974 ATOMS
Info: 2974 BONDS
Info: 19 ANGLES
Info: 31 DIHEDRALS
Info: 0 IMPROPERS
Info: 0 CROSSTERMS
Info: 3016 EXCLUSIONS
Info: 2967 RIGID BONDS
Info: ALCH: 0 ATOMS TO DISAPPEAR IN FINAL STATE
Info: ALCH: 13 ATOMS TO APPEAR IN FINAL STATE
Info: 5955 DEGREES OF FREEDOM
Info: 994 HYDROGEN GROUPS
Info: 3 ATOMS IN LARGEST HYDROGEN GROUP
Info: 994 MIGRATION GROUPS
Info: 3 ATOMS IN LARGEST MIGRATION GROUP
Info: TOTAL MASS = 17875.9 amu
Info: TOTAL CHARGE = -1.49012e-08 e
Info: MASS DENSITY = 0.966584 g/cm^3
Info: ATOM DENSITY = 0.0968397 atoms/A^3
Info: ADDED 0 IMPLICIT EXCLUSIONS
Info: NONBONDED TABLE R-SQUARED SPACING: 0.0625
Info: NONBONDED TABLE SIZE: 705 POINTS
Info: REMOVING COM VELOCITY 0.147656 -0.00756166 -0.160353
Info: Use 3D box decompostion in PME FFT.
Info: Updated CUDA force table with 4096 elements.
Info: Updated CUDA LJ table with 6 x 6 elements.
Info: Found 15 unique exclusion lists needing 28 bytes
TCL: Running for 1500000 steps
ETITLE: TS BOND ANGLE DIHED IMPRP ELECT VDW BOUNDARY MISC KINETIC TOTAL TEMP POTENTIAL TOTALAVG TEMPAVG PRESSURE GPRESSURE VOLUME PRESSAVG GPRESSAVG
ENERGY: 0 1.1742 5.8012 4.0801 0.0000 -10664.6987 1397.6036 0.0000 0.0000 1760.6740 -7495.3656 297.5689 -9256.0396 -7495.3656 297.5689 -361.9664 -282.3526 30710.5407 -361.9664 -282.3526
ENERGY: 300000 4.9740 4.1486 1.3586 0.0000 -10837.5737 1477.4077 0.0000 0.0000 1789.7562 -7559.9286 302.4841 -9349.6848 -7531.6912 304.5114 100.2202 180.2006 30449.1279 -62.1848 -8.8987
ENERGY: 600000 3.0261 4.5377 5.7046 0.0000 -10820.6827 1492.0390 0.0000 0.0000 1821.0514 -7494.3238 307.7732 -9315.3752 -7502.6419 304.3834 588.8521 638.4365 30278.3673 75.2946 129.5337
ENERGY: 900000 1.6271 2.8586 1.2075 0.0000 -10780.6012 1458.9097 0.0000 0.0000 1773.3563 -7542.6420 299.7123 -9315.9983 -7516.3922 302.7792 7.1342 64.4195 31115.4665 -11.4878 49.5005
ENERGY: 1200000 1.8248 3.0832 5.5384 0.0000 -10578.2077 1306.2892 0.0000 0.0000 1778.3046 -7483.1675 300.5486 -9261.4720 -7525.9346 301.5049 -1041.3245 -979.4469 31023.2863 -145.4605 -81.7304
ENERGY: 1500000 1.6590 4.5560 3.4301 0.0000 -10702.0504 1378.7620 0.0000 0.0000 1818.7694 -7494.8739 307.3875 -9313.6433 -7530.7086 301.9428 -661.5942 -592.3640 31077.8452 -211.0407 -146.6398
TCL: Running FEP window   2: Lambda1 0.95   Lambda2 0.8999999999999999 [dLambda -0.050000000000000044]
TCL: Setting parameter firsttimestep to 0
TCL: Setting parameter alchLambda to 0.95
Info: NONBONDED TABLE R-SQUARED SPACING: 0.0625
Info: NONBONDED TABLE SIZE: 705 POINTS
TCL: Setting parameter alchLambda2 to 0.8999999999999999
Info: NONBONDED TABLE R-SQUARED SPACING: 0.0625
Info: NONBONDED TABLE SIZE: 705 POINTS
TCL: Running for 1500000 steps
ETITLE: TS BOND ANGLE DIHED IMPRP ELECT VDW BOUNDARY MISC KINETIC TOTAL TEMP POTENTIAL TOTALAVG TEMPAVG PRESSURE GPRESSURE VOLUME PRESSAVG GPRESSAVG
ENERGY: 0 1.6590 4.5560 3.4301 0.0000 -10700.0259 1377.5116 0.0000 0.0000 1817.8803 -7494.9888 307.2373 -9312.8692 -7494.9888 307.2373 -715.0450 -618.4579 31077.8452 -715.0450 -618.4579
ENERGY: 300000 2.3632 2.5575 6.1097 0.0000 -10592.9090 1322.4818 0.0000 0.0000 1825.7104 -7433.6865 308.5606 -9259.3968 -7508.9135 306.8898 -812.0085 -794.1188 30980.9906 -277.0632 -203.8832
ENERGY: 600000 0.8110 1.2279 2.2453 0.0000 -10849.5077 1470.2181 0.0000 0.0000 1765.4562 -7609.5493 298.3772 -9375.0055 -7529.9828 305.0730 321.0040 381.5508 30183.4665 -15.9416 53.1311
ENERGY: 900000 1.2117 2.3351 2.2942 0.0000 -10881.2699 1443.4359 0.0000 0.0000 1769.9916 -7662.0013 299.1437 -9431.9929 -7541.7421 303.4904 -593.6707 -481.2664 31018.7727 -6.2761 63.5258
ENERGY: 1200000 3.3252 3.8106 4.9105 0.0000 -10804.8154 1484.1635 0.0000 0.0000 1766.7327 -7541.8729 298.5929 -9308.6057 -7546.6369 302.3458 317.8045 422.6284 30510.9120 -11.2177 69.1555
ENERGY: 1500000 2.2189 2.9409 0.8295 0.0000 -10875.5838 1456.2018 0.0000 0.0000 1826.4802 -7586.9125 308.6907 -9413.3927 -7553.6594 302.2774 -55.0257 -74.3691 30497.4104 39.2488 113.5362
TCL: Running FEP window   3: Lambda1 0.8999999999999999 Lambda2 0.8499999999999999 [dLambda -0.050000000000000044]
TCL: Setting parameter firsttimestep to 0
TCL: Setting parameter alchLambda to 0.8999999999999999
Info: NONBONDED TABLE R-SQUARED SPACING: 0.0625
Info: NONBONDED TABLE SIZE: 705 POINTS
TCL: Setting parameter alchLambda2 to 0.8499999999999999
Info: NONBONDED TABLE R-SQUARED SPACING: 0.0625
Info: NONBONDED TABLE SIZE: 705 POINTS
TCL: Running for 1500000 steps
ETITLE: TS BOND ANGLE DIHED IMPRP ELECT VDW BOUNDARY MISC KINETIC TOTAL TEMP POTENTIAL TOTALAVG TEMPAVG PRESSURE GPRESSURE VOLUME PRESSAVG GPRESSAVG
ENERGY: 0 2.2189 2.9409 0.8295 0.0000 -10873.4438 1455.8121 0.0000 0.0000 1825.5956 -7586.0467 308.5412 -9411.6424 -7586.0467 308.5412 -170.7940 -83.6105 30497.4104 -170.7940 -83.6105
ENERGY: 300000 1.7422 3.8031 1.8404 0.0000 -10834.3370 1477.1439 0.0000 0.0000 1804.7503 -7545.0572 305.0182 -9349.8075 -7585.3816 304.9987 517.8508 565.6007 30104.6038 40.3265 88.9034
ENERGY: 600000 1.3321 4.7055 3.7462 0.0000 -10693.3799 1403.3240 0.0000 0.0000 1809.7084 -7470.5638 305.8561 -9280.2721 -7557.7933 303.9535 -256.8244 -127.4109 30848.9765 20.6928 96.7556
ENERGY: 900000 0.7477 1.8167 1.1463 0.0000 -10680.6254 1363.4486 0.0000 0.0000 1717.6348 -7595.8312 290.2949 -9313.4660 -7555.8286 302.7736 -693.6419 -572.2049 30736.0328 -23.3800 42.4442
ENERGY: 1200000 1.5493 4.2612 2.6971 0.0000 -10676.9025 1406.5358 0.0000 0.0000 1749.4574 -7512.4017 295.6732 -9261.8591 -7549.5327 301.7778 -178.7003 -93.7038 30498.4758 -105.4704 -38.9722
ENERGY: 1500000 2.1238 4.2596 3.6513 0.0000 -10803.4283 1426.3998 0.0000 0.0000 1797.5786 -7569.4152 303.8061 -9366.9938 -7554.2059 302.1737 -105.1262 -52.5774 30559.6023 -78.4258 -14.7824
TCL: Running FEP window   4: Lambda1 0.8499999999999999 Lambda2 0.7999999999999998 [dLambda -0.050000000000000044]
TCL: Setting parameter firsttimestep to 0
TCL: Setting parameter alchLambda to 0.8499999999999999
Info: NONBONDED TABLE R-SQUARED SPACING: 0.0625
Info: NONBONDED TABLE SIZE: 705 POINTS
TCL: Setting parameter alchLambda2 to 0.7999999999999998
Info: NONBONDED TABLE R-SQUARED SPACING: 0.0625
Info: NONBONDED TABLE SIZE: 705 POINTS
TCL: Running for 1500000 steps
ETITLE: TS BOND ANGLE DIHED IMPRP ELECT VDW BOUNDARY MISC KINETIC TOTAL TEMP POTENTIAL TOTALAVG TEMPAVG PRESSURE GPRESSURE VOLUME PRESSAVG GPRESSAVG
ENERGY: 0 2.1238 4.2596 3.6513 0.0000 -10801.6257 1425.7108 0.0000 0.0000 1796.7237 -7569.1566 303.6616 -9365.8802 -7569.1566 303.6616 -151.4936 -66.0712 30559.6023 -151.4936 -66.0712
ENERGY: 300000 2.1571 2.8833 2.0293 0.0000 -10755.2948 1449.5730 0.0000 0.0000 1801.6101 -7497.0420 304.4875 -9298.6521 -7539.8355 304.0563 14.3968 68.9015 30991.7734 10.9063 41.1890
ENERGY: 600000 3.6233 3.6421 3.6681 0.0000 -10678.5638 1322.9480 0.0000 0.0000 1812.2162 -7532.4661 306.2800 -9344.6824 -7555.6863 303.6461 -1122.4051 -1008.1273 30870.7500 -234.1387 -202.5715
ENERGY: 900000 1.8023 2.6639 5.2232 0.0000 -10959.4380 1573.1650 0.0000 0.0000 1765.1188 -7611.4647 298.3201 -9376.5835 -7565.9236 301.7080 767.7171 824.0583 30624.9169 -113.9073 -73.1093
ENERGY: 1200000 2.3413 2.3254 2.5610 0.0000 -10893.0084 1546.0676 0.0000 0.0000 1789.6117 -7550.1014 302.4596 -9339.7132 -7558.9398 301.5830 739.4503 750.6302 30811.2396 -101.2728 -63.0279
ENERGY: 1500000 1.8698 1.7526 3.8070 0.0000 -10725.0063 1299.0239 0.0000 0.0000 1837.0091 -7581.5438 310.4702 -9418.5530 -7559.4732 302.8004 -1429.0311 -1373.5809 30687.6731 -58.9838 -18.5307
TCL: Running FEP window   5: Lambda1 0.7999999999999998 Lambda2 0.7499999999999998 [dLambda -0.050000000000000044]
TCL: Setting parameter firsttimestep to 0
TCL: Setting parameter alchLambda to 0.7999999999999998
Info: NONBONDED TABLE R-SQUARED SPACING: 0.0625
Info: NONBONDED TABLE SIZE: 705 POINTS
TCL: Setting parameter alchLambda2 to 0.7499999999999998
Info: NONBONDED TABLE R-SQUARED SPACING: 0.0625
Info: NONBONDED TABLE SIZE: 705 POINTS
TCL: Running for 1500000 steps
ETITLE: TS BOND ANGLE DIHED IMPRP ELECT VDW BOUNDARY MISC KINETIC TOTAL TEMP POTENTIAL TOTALAVG TEMPAVG PRESSURE GPRESSURE VOLUME PRESSAVG GPRESSAVG
ENERGY: 0 1.8698 1.7526 3.8070 0.0000 -10723.8929 1298.8620 0.0000 0.0000 1836.1199 -7581.4817 310.3199 -9417.6015 -7581.4817 310.3199 -1460.3191 -1376.7714 30687.6731 -1460.3191 -1376.7714
ENERGY: 300000 2.5617 2.6098 3.5720 0.0000 -10797.9056 1396.5988 0.0000 0.0000 1755.0953 -7637.4680 296.6261 -9392.5633 -7606.9010 302.4015 -738.7315 -721.2730 30866.0831 -667.6212 -621.0937
ENERGY: 600000 1.5372 2.0704 2.5343 0.0000 -10733.2986 1372.8621 0.0000 0.0000 1739.0431 -7615.2515 293.9131 -9354.2946 -7593.8438 301.4802 -694.6498 -619.4598 30743.0287 -519.1345 -457.6823
ENERGY: 900000 1.2229 0.5901 3.6337 0.0000 -10789.7295 1411.9832 0.0000 0.0000 1815.0852 -7557.2143 306.7649 -9372.2995 -7588.0581 300.4616 -418.0438 -397.2186 30766.0047 -558.4923 -492.6957
ENERGY: 1200000 1.4728 4.3120 6.1121 0.0000 -10859.8456 1493.3493 0.0000 0.0000 1762.1976 -7592.4018 297.8264 -9354.5994 -7570.2854 300.9965 276.2711 344.3618 30688.6659 -423.1468 -358.9345
ENERGY: 1500000 3.4919 1.2557 3.5125 0.0000 -10815.1689 1458.7427 0.0000 0.0000 1824.8597 -7523.3065 308.4168 -9348.1661 -7573.4372 301.5657 -87.9197 -17.4645 31044.0640 -310.3287 -248.6905
TCL: Running FEP window   6: Lambda1 0.7499999999999998 Lambda2 0.6999999999999997 [dLambda -0.050000000000000044]
TCL: Setting parameter firsttimestep to 0
TCL: Setting parameter alchLambda to 0.7499999999999998
Info: NONBONDED TABLE R-SQUARED SPACING: 0.0625
Info: NONBONDED TABLE SIZE: 705 POINTS
TCL: Setting parameter alchLambda2 to 0.6999999999999997
Info: NONBONDED TABLE R-SQUARED SPACING: 0.0625
Info: NONBONDED TABLE SIZE: 705 POINTS
TCL: Running for 1500000 steps
ETITLE: TS BOND ANGLE DIHED IMPRP ELECT VDW BOUNDARY MISC KINETIC TOTAL TEMP POTENTIAL TOTALAVG TEMPAVG PRESSURE GPRESSURE VOLUME PRESSAVG GPRESSAVG
ENERGY: 0 3.4919 1.2557 3.5125 0.0000 -10814.2693 1458.1709 0.0000 0.0000 1823.9527 -7523.8856 308.2636 -9347.8383 -7523.8856 308.2636 -103.9891 -29.8523 31044.0640 -103.9891 -29.8523
ENERGY: 300000 2.6973 4.3244 3.6216 0.0000 -10624.1923 1309.9652 0.0000 0.0000 1823.0128 -7480.5710 308.1047 -9303.5839 -7547.1902 303.4352 -570.5523 -529.6637 30225.2421 86.5966 127.7633
ENERGY: 600000 2.2372 3.2765 2.7850 0.0000 -10728.1387 1405.3661 0.0000 0.0000 1709.3948 -7605.0791 288.9023 -9314.4739 -7551.6066 301.7214 -103.6917 -71.8965 30277.2910 93.1541 143.7183
ENERGY: 900000 2.2657 3.3795 3.4427 0.0000 -10685.6721 1369.6941 0.0000 0.0000 1789.0400 -7517.8501 302.3630 -9306.8901 -7562.2527 301.4981 -389.1262 -345.2987 30541.8946 18.3145 70.0144
ENERGY: 1200000 2.9383 3.1187 3.0906 0.0000 -10699.6665 1370.4744 0.0000 0.0000 1679.6913 -7640.3532 283.8821 -9320.0445 -7569.7103 300.2927 -732.8550 -736.2667 30910.3032 -28.6314 20.7601
ENERGY: 1500000 2.7188 1.7894 3.0949 0.0000 -10723.3475 1429.7100 0.0000 0.0000 1771.5544 -7514.4800 299.4078 -9286.0343 -7569.1536 300.2820 -37.8653 72.3915 30637.5996 -51.8187 6.5595
TCL: Running FEP window   7: Lambda1 0.6999999999999997 Lambda2 0.6499999999999997 [dLambda -0.050000000000000044]
TCL: Setting parameter firsttimestep to 0
TCL: Setting parameter alchLambda to 0.6999999999999997
Info: NONBONDED TABLE R-SQUARED SPACING: 0.0625
Info: NONBONDED TABLE SIZE: 705 POINTS
TCL: Setting parameter alchLambda2 to 0.6499999999999997
Info: NONBONDED TABLE R-SQUARED SPACING: 0.0625
Info: NONBONDED TABLE SIZE: 705 POINTS
TCL: Running for 1500000 steps
ETITLE: TS BOND ANGLE DIHED IMPRP ELECT VDW BOUNDARY MISC KINETIC TOTAL TEMP POTENTIAL TOTALAVG TEMPAVG PRESSURE GPRESSURE VOLUME PRESSAVG GPRESSAVG
ENERGY: 0 2.7188 1.7894 3.0949 0.0000 -10722.4728 1429.8690 0.0000 0.0000 1770.6667 -7514.3339 299.2578 -9285.0006 -7514.3339 299.2578 -31.9713 68.3486 30637.5996 -31.9713 68.3486
ENERGY: 300000 2.6904 1.1688 2.2304 0.0000 -10608.4528 1346.9545 0.0000 0.0000 1808.9677 -7446.4410 305.7310 -9255.4087 -7502.5119 302.8897 -785.0416 -771.8787 31202.2068 -246.1211 -201.3163
ENERGY: 600000 3.0890 3.7881 1.1337 0.0000 -10774.6886 1438.6165 0.0000 0.0000 1788.2397 -7539.8214 302.2278 -9328.0612 -7519.5355 301.9707 -45.3360 -33.6702 30453.5834 -224.3928 -188.6674
ENERGY: 900000 1.3780 3.0582 1.0347 0.0000 -10690.0850 1375.6401 0.0000 0.0000 1777.7168 -7531.2573 300.4493 -9308.9741 -7543.8635 300.4509 -656.5562 -615.2269 31091.9648 -209.4714 -171.4760
ENERGY: 1200000 2.6989 2.7036 2.7807 0.0000 -10864.3807 1520.8768 0.0000 0.0000 1722.1797 -7613.1410 291.0631 -9335.3207 -7546.5609 299.7137 602.6336 723.4517 30120.5076 -45.7917 3.7674
ENERGY: 1500000 1.5677 5.6083 2.7166 0.0000 -10849.3412 1484.6763 0.0000 0.0000 1831.5646 -7523.2077 309.5500 -9354.7723 -7551.9837 300.2022 396.1356 379.4983 30326.6513 1.8748 43.9640
TCL: Running FEP window   8: Lambda1 0.6499999999999997 Lambda2 0.5999999999999996 [dLambda -0.050000000000000044]
TCL: Setting parameter firsttimestep to 0
TCL: Setting parameter alchLambda to 0.6499999999999997
Info: NONBONDED TABLE R-SQUARED SPACING: 0.0625
Info: NONBONDED TABLE SIZE: 705 POINTS
TCL: Setting parameter alchLambda2 to 0.5999999999999996
Info: NONBONDED TABLE R-SQUARED SPACING: 0.0625
Info: NONBONDED TABLE SIZE: 705 POINTS
TCL: Running for 1500000 steps
ETITLE: TS BOND ANGLE DIHED IMPRP ELECT VDW BOUNDARY MISC KINETIC TOTAL TEMP POTENTIAL TOTALAVG TEMPAVG PRESSURE GPRESSURE VOLUME PRESSAVG GPRESSAVG
ENERGY: 0 1.5677 5.6083 2.7166 0.0000 -10847.8272 1485.1553 0.0000 0.0000 1830.6674 -7522.1120 309.3984 -9352.7794 -7522.1120 309.3984 290.2732 381.5359 30326.6513 290.2732 381.5359
ENERGY: 300000 1.4887 2.0763 1.2570 0.0000 -10964.7985 1524.7848 0.0000 0.0000 1777.7811 -7657.4106 300.4602 -9435.1917 -7568.3813 302.3744 609.6202 563.0809 30192.1198 -139.7421 -100.8951
ENERGY: 600000 1.0311 2.5975 4.2580 0.0000 -10946.1187 1524.5552 0.0000 0.0000 1750.0947 -7663.5823 295.7809 -9413.6770 -7583.6080 299.9829 29.8286 151.0516 31010.5887 -133.9571 -70.6161
ENERGY: 900000 2.2889 1.3713 0.8439 0.0000 -10882.8033 1498.2860 0.0000 0.0000 1827.9787 -7552.0346 308.9440 -9380.0133 -7578.1809 300.0695 721.9930 768.1898 29915.9631 8.6341 68.0147
ENERGY: 1200000 2.9590 2.3206 2.1689 0.0000 -10704.3745 1375.2066 0.0000 0.0000 1818.1342 -7503.5851 307.2802 -9321.7193 -7579.2217 299.6533 -646.1506 -525.1713 30566.4750 -87.1740 -21.5824
ENERGY: 1500000 6.4888 4.0077 1.7157 0.0000 -10817.7379 1458.7284 0.0000 0.0000 1776.4696 -7570.3277 300.2385 -9346.7973 -7576.6238 299.5170 -153.7055 -64.9774 30852.6321 -34.8993 27.2385
TCL: Running FEP window   9: Lambda1 0.5999999999999996 Lambda2 0.5499999999999996 [dLambda -0.050000000000000044]
TCL: Setting parameter firsttimestep to 0
TCL: Setting parameter alchLambda to 0.5999999999999996
Info: NONBONDED TABLE R-SQUARED SPACING: 0.0625
Info: NONBONDED TABLE SIZE: 705 POINTS
TCL: Setting parameter alchLambda2 to 0.5499999999999996
Info: NONBONDED TABLE R-SQUARED SPACING: 0.0625
Info: NONBONDED TABLE SIZE: 705 POINTS
TCL: Running for 1500000 steps
ETITLE: TS BOND ANGLE DIHED IMPRP ELECT VDW BOUNDARY MISC KINETIC TOTAL TEMP POTENTIAL TOTALAVG TEMPAVG PRESSURE GPRESSURE VOLUME PRESSAVG GPRESSAVG
ENERGY: 0 6.4888 4.0077 1.7157 0.0000 -10817.6088 1459.0523 0.0000 0.0000 1775.6454 -7570.6989 300.0992 -9346.3443 -7570.6989 300.0992 -144.6213 -65.6121 30852.6321 -144.6213 -65.6121
ENERGY: 300000 0.9706 3.2597 3.0255 0.0000 -10674.1003 1365.9025 0.0000 0.0000 1852.8727 -7448.0693 313.1513 -9300.9419 -7516.7308 301.9410 -538.6430 -472.2519 30654.1265 -217.0000 -154.6415
ENERGY: 600000 0.4883 2.3035 3.1423 0.0000 -10751.5255 1423.3792 0.0000 0.0000 1740.2128 -7581.9995 294.1108 -9322.2123 -7531.3944 300.2732 157.6557 183.0252 30226.7340 22.3020 61.7393
ENERGY: 900000 4.6311 4.4110 1.6085 0.0000 -10693.3977 1403.6604 0.0000 0.0000 1804.6560 -7474.4307 305.0023 -9279.0867 -7530.6103 300.4607 -100.1784 -35.3653 30194.9107 -112.2017 -70.4599
ENERGY: 1200000 2.2605 5.3370 3.2431 0.0000 -10679.7187 1387.6063 0.0000 0.0000 1778.1768 -7503.0950 300.5270 -9281.2718 -7532.6575 300.5709 3.3698 6.5912 30150.5657 -173.6015 -125.7300
ENERGY: 1500000 1.2885 1.1159 3.5649 0.0000 -10765.0729 1451.7539 0.0000 0.0000 1764.0289 -7543.3208 298.1359 -9307.3497 -7525.3428 299.6939 -11.8784 1.7668 30713.2925 -194.0666 -139.8837
TCL: Running FEP window  10: Lambda1 0.5499999999999996 Lambda2 0.4999999999999996 [dLambda -0.04999999999999999]
TCL: Setting parameter firsttimestep to 0
TCL: Setting parameter alchLambda to 0.5499999999999996
Info: NONBONDED TABLE R-SQUARED SPACING: 0.0625
Info: NONBONDED TABLE SIZE: 705 POINTS
TCL: Setting parameter alchLambda2 to 0.4999999999999996
Info: NONBONDED TABLE R-SQUARED SPACING: 0.0625
Info: NONBONDED TABLE SIZE: 705 POINTS
TCL: Running for 1500000 steps
ETITLE: TS BOND ANGLE DIHED IMPRP ELECT VDW BOUNDARY MISC KINETIC TOTAL TEMP POTENTIAL TOTALAVG TEMPAVG PRESSURE GPRESSURE VOLUME PRESSAVG GPRESSAVG
ENERGY: 0 1.2885 1.1159 3.5649 0.0000 -10764.8624 1451.7899 0.0000 0.0000 1763.1489 -7543.9543 297.9872 -9307.1032 -7543.9543 297.9872 -81.2926 -3.6759 30713.2925 -81.2926 -3.6759
ENERGY: 300000 1.9556 2.0541 3.9715 0.0000 -10859.6765 1431.0585 0.0000 0.0000 1778.9241 -7641.7127 300.6533 -9420.6368 -7581.3944 303.5822 -211.3453 -123.5713 30286.9704 -373.2420 -274.9068
ENERGY: 600000 1.9356 3.3506 2.4207 0.0000 -10879.8933 1474.5599 0.0000 0.0000 1769.3852 -7628.2413 299.0412 -9397.6265 -7590.1801 302.1756 142.7155 161.6737 30572.9860 -128.6509 -61.5296
ENERGY: 900000 0.5036 1.3355 2.0060 0.0000 -10869.4099 1560.0518 0.0000 0.0000 1805.4689 -7500.0441 305.1396 -9305.5130 -7577.3623 301.5705 880.3184 949.3407 30563.3365 5.4471 80.1733
ENERGY: 1200000 4.0718 4.4068 3.4369 0.0000 -10936.7970 1551.4251 0.0000 0.0000 1795.4932 -7577.9633 303.4537 -9373.4565 -7561.5635 302.3250 771.8473 776.7506 30489.0663 35.6810 106.3251
ENERGY: 1500000 1.1654 4.7182 2.9181 0.0000 -10819.5196 1447.1122 0.0000 0.0000 1775.5325 -7588.0732 300.0801 -9363.6057 -7558.0860 302.5824 -398.7925 -273.6217 31013.5892 -24.2973 52.1205
TCL: Running FEP window  11: Lambda1 0.4999999999999996 Lambda2 0.4499999999999996 [dLambda -0.04999999999999999]
TCL: Setting parameter firsttimestep to 0
TCL: Setting parameter alchLambda to 0.4999999999999996
Info: NONBONDED TABLE R-SQUARED SPACING: 0.0625
Info: NONBONDED TABLE SIZE: 705 POINTS
TCL: Setting parameter alchLambda2 to 0.4499999999999996
Info: NONBONDED TABLE R-SQUARED SPACING: 0.0625
Info: NONBONDED TABLE SIZE: 705 POINTS
TCL: Running for 1500000 steps
ETITLE: TS BOND ANGLE DIHED IMPRP ELECT VDW BOUNDARY MISC KINETIC TOTAL TEMP POTENTIAL TOTALAVG TEMPAVG PRESSURE GPRESSURE VOLUME PRESSAVG GPRESSAVG
ENERGY: 0 1.1654 4.7182 2.9181 0.0000 -10819.0836 1446.9465 0.0000 0.0000 1774.6348 -7588.7006 299.9284 -9363.3355 -7588.7006 299.9284 -379.0504 -282.0333 31013.5892 -379.0504 -282.0333
ENERGY: 300000 1.0363 3.3363 5.1518 0.0000 -10754.2985 1401.2582 0.0000 0.0000 1763.8836 -7579.6322 298.1114 -9343.5158 -7554.9065 300.8095 -570.2508 -509.5342 30741.8754 -251.4612 -173.4488
ENERGY: 600000 1.8424 1.9371 2.4696 0.0000 -10756.2698 1395.7304 0.0000 0.0000 1777.5787 -7576.7117 300.4260 -9354.2904 -7549.1952 299.9116 -684.5460 -686.4151 31264.9337 -265.5979 -200.6570
ENERGY: 900000 3.4349 3.0824 3.8143 0.0000 -10848.6040 1470.8032 0.0000 0.0000 1767.2879 -7600.1813 298.6867 -9367.4692 -7550.8948 299.8507 109.0585 201.6998 30164.4677 -313.0264 -243.0141
ENERGY: 1200000 1.1567 2.8919 1.9906 0.0000 -10806.7849 1417.1886 0.0000 0.0000 1791.3227 -7592.2344 302.7488 -9383.5571 -7552.1999 300.4546 -520.8693 -482.5408 30770.5078 -318.9918 -258.2226
ENERGY: 1500000 1.8022 2.1842 4.0534 0.0000 -10701.4861 1433.8255 0.0000 0.0000 1758.7885 -7500.8322 297.2503 -9259.6208 -7554.2409 300.0299 106.2477 192.4939 30581.3230 -377.7973 -314.1618
TCL: Running FEP window  12: Lambda1 0.4499999999999996 Lambda2 0.39999999999999963 [dLambda -0.04999999999999999]
TCL: Setting parameter firsttimestep to 0
TCL: Setting parameter alchLambda to 0.4499999999999996
Info: NONBONDED TABLE R-SQUARED SPACING: 0.0625
Info: NONBONDED TABLE SIZE: 705 POINTS
TCL: Setting parameter alchLambda2 to 0.39999999999999963
Info: NONBONDED TABLE R-SQUARED SPACING: 0.0625
Info: NONBONDED TABLE SIZE: 705 POINTS
TCL: Running for 1500000 steps
ETITLE: TS BOND ANGLE DIHED IMPRP ELECT VDW BOUNDARY MISC KINETIC TOTAL TEMP POTENTIAL TOTALAVG TEMPAVG PRESSURE GPRESSURE VOLUME PRESSAVG GPRESSAVG
ENERGY: 0 1.8022 2.1842 4.0534 0.0000 -10701.4861 1434.0817 0.0000 0.0000 1757.8994 -7501.4652 297.1000 -9259.3646 -7501.4652 297.1000 103.5105 187.8844 30581.3230 103.5105 187.8844
ENERGY: 300000 1.8390 2.6035 1.6098 0.0000 -10778.2230 1429.1262 0.0000 0.0000 1795.5106 -7547.5339 303.4566 -9343.0445 -7541.8925 300.3606 89.0762 258.1438 29938.0950 162.2938 262.6675
ENERGY: 600000 1.8494 3.0168 1.9399 0.0000 -10722.9019 1433.9742 0.0000 0.0000 1748.9872 -7533.1344 295.5937 -9282.1216 -7543.5983 298.2070 53.0212 143.2139 30268.2384 -41.9003 52.3925
ENERGY: 900000 4.4969 3.4242 4.2901 0.0000 -10810.4245 1469.8737 0.0000 0.0000 1797.0421 -7531.2975 303.7154 -9328.3396 -7547.6393 298.5999 198.8909 294.1525 30284.8265 -65.4180 30.3432
ENERGY: 1200000 1.5096 4.9317 1.6625 0.0000 -10792.8428 1482.9779 0.0000 0.0000 1816.2162 -7485.5449 306.9560 -9301.7611 -7545.1734 298.8535 554.7236 603.7443 30392.7941 -30.3396 54.5168
ENERGY: 1500000 1.7892 1.9080 4.4610 0.0000 -10706.7310 1488.4364 0.0000 0.0000 1786.2492 -7423.8871 301.8913 -9210.1363 -7535.5533 298.5015 684.4350 740.2297 30527.6510 36.9371 118.4100
TCL: Running FEP window  13: Lambda1 0.39999999999999963 Lambda2 0.34999999999999964 [dLambda -0.04999999999999999]
TCL: Setting parameter firsttimestep to 0
TCL: Setting parameter alchLambda to 0.39999999999999963
Info: NONBONDED TABLE R-SQUARED SPACING: 0.0625
Info: NONBONDED TABLE SIZE: 705 POINTS
TCL: Setting parameter alchLambda2 to 0.34999999999999964
Info: NONBONDED TABLE R-SQUARED SPACING: 0.0625
Info: NONBONDED TABLE SIZE: 705 POINTS
TCL: Running for 1500000 steps
ETITLE: TS BOND ANGLE DIHED IMPRP ELECT VDW BOUNDARY MISC KINETIC TOTAL TEMP POTENTIAL TOTALAVG TEMPAVG PRESSURE GPRESSURE VOLUME PRESSAVG GPRESSAVG
ENERGY: 0 1.7892 1.9080 4.4610 0.0000 -10706.7310 1488.7742 0.0000 0.0000 1785.3827 -7424.4159 301.7449 -9209.7986 -7424.4159 301.7449 673.8949 739.0035 30527.6510 673.8949 739.0035
ENERGY: 300000 5.1169 3.5731 2.2817 0.0000 -10786.8562 1470.2083 0.0000 0.0000 1769.3502 -7536.3261 299.0353 -9305.6763 -7515.5113 301.2077 128.0469 246.6046 30680.3528 275.1746 349.2501
ENERGY: 600000 1.7454 0.8357 4.4696 0.0000 -10784.0703 1341.0081 0.0000 0.0000 1785.2734 -7650.7380 301.7264 -9436.0114 -7555.2677 301.4459 -1221.3023 -1213.1875 31101.2957 15.8504 73.3278
ENERGY: 900000 4.0360 4.9470 3.3315 0.0000 -10766.8813 1483.9882 0.0000 0.0000 1725.9415 -7544.6371 291.6988 -9270.5786 -7549.7764 300.3376 442.6837 527.0811 30345.7442 131.9347 189.1619
ENERGY: 1200000 2.2782 3.7519 2.4872 0.0000 -10728.1797 1427.7897 0.0000 0.0000 1815.4334 -7476.4393 306.8237 -9291.8727 -7545.8229 300.3612 67.1800 118.9311 30402.2475 61.5378 124.2990
ENERGY: 1500000 0.2750 1.6071 4.3739 0.0000 -10722.1288 1431.1871 0.0000 0.0000 1788.4313 -7496.2545 302.2601 -9284.6858 -7536.9006 301.0300 -183.6001 -141.1186 30835.5438 5.6182 68.3601
TCL: Running FEP window  14: Lambda1 0.34999999999999964 Lambda2 0.29999999999999966 [dLambda -0.04999999999999999]
TCL: Setting parameter firsttimestep to 0
TCL: Setting parameter alchLambda to 0.34999999999999964
Info: NONBONDED TABLE R-SQUARED SPACING: 0.0625
Info: NONBONDED TABLE SIZE: 705 POINTS
TCL: Setting parameter alchLambda2 to 0.29999999999999966
Info: NONBONDED TABLE R-SQUARED SPACING: 0.0625
Info: NONBONDED TABLE SIZE: 705 POINTS
TCL: Running for 1500000 steps
ETITLE: TS BOND ANGLE DIHED IMPRP ELECT VDW BOUNDARY MISC KINETIC TOTAL TEMP POTENTIAL TOTALAVG TEMPAVG PRESSURE GPRESSURE VOLUME PRESSAVG GPRESSAVG
ENERGY: 0 0.2750 1.6071 4.3739 0.0000 -10722.1292 1431.1149 0.0000 0.0000 1787.5554 -7497.2030 302.1121 -9284.7584 -7497.2030 302.1121 -223.9801 -144.4499 30835.5438 -223.9801 -144.4499
ENERGY: 300000 0.4080 3.8880 4.1488 0.0000 -10779.7544 1398.5508 0.0000 0.0000 1794.1555 -7578.6033 303.2276 -9372.7589 -7544.9264 302.5755 -515.2697 -429.8794 30781.1694 -301.2483 -203.7200
ENERGY: 600000 2.4878 1.7976 3.0728 0.0000 -10803.0481 1485.0582 0.0000 0.0000 1689.7837 -7620.8479 285.5879 -9310.6316 -7562.2041 300.0573 154.0803 190.6138 30634.5587 -249.2998 -165.7872
ENERGY: 900000 2.8647 2.9983 3.0582 0.0000 -10818.2150 1482.7266 0.0000 0.0000 1791.8421 -7534.7252 302.8366 -9326.5673 -7549.1232 300.7513 326.6101 428.8006 30366.7501 -13.2349 72.4935
ENERGY: 1200000 3.9257 2.5301 1.4367 0.0000 -10763.2137 1420.0313 0.0000 0.0000 1718.7332 -7616.5567 290.4806 -9335.2899 -7558.7833 300.4331 -309.6394 -323.4762 30759.1848 27.3855 99.8401
ENERGY: 1500000 2.9710 2.1398 2.7912 0.0000 -10794.4131 1431.8407 0.0000 0.0000 1768.9750 -7585.6955 298.9719 -9354.6704 -7558.6347 300.2833 -215.9239 -229.3859 30363.8519 -51.0518 19.6108
TCL: Running FEP window  15: Lambda1 0.29999999999999966 Lambda2 0.24999999999999967 [dLambda -0.04999999999999999]
TCL: Setting parameter firsttimestep to 0
TCL: Setting parameter alchLambda to 0.29999999999999966
Info: NONBONDED TABLE R-SQUARED SPACING: 0.0625
Info: NONBONDED TABLE SIZE: 705 POINTS
TCL: Setting parameter alchLambda2 to 0.24999999999999967
Info: NONBONDED TABLE R-SQUARED SPACING: 0.0625
Info: NONBONDED TABLE SIZE: 705 POINTS
TCL: Running for 1500000 steps
ETITLE: TS BOND ANGLE DIHED IMPRP ELECT VDW BOUNDARY MISC KINETIC TOTAL TEMP POTENTIAL TOTALAVG TEMPAVG PRESSURE GPRESSURE VOLUME PRESSAVG GPRESSAVG
ENERGY: 0 2.9710 2.1398 2.7912 0.0000 -10794.4141 1432.1857 0.0000 0.0000 1768.0653 -7586.2612 298.8181 -9354.3265 -7586.2612 298.8181 -316.7879 -230.1063 30363.8519 -316.7879 -230.1063
ENERGY: 300000 1.3517 2.8683 5.0750 0.0000 -10795.8715 1403.5295 0.0000 0.0000 1776.4126 -7606.6344 300.2289 -9383.0470 -7562.4184 300.8647 -412.4365 -359.7580 30450.6752 -123.7211 -83.4464
ENERGY: 600000 3.0599 3.5204 4.8930 0.0000 -10793.6924 1448.9411 0.0000 0.0000 1800.4315 -7532.8464 304.2883 -9333.2779 -7551.7752 300.6170 -150.2233 -82.9176 31023.0259 -192.0500 -134.3461
ENERGY: 900000 2.9938 3.2230 4.2845 0.0000 -10745.1062 1431.2813 0.0000 0.0000 1773.5589 -7529.7647 299.7466 -9303.3236 -7554.1353 299.3356 -439.4015 -270.1188 30834.5509 -195.8075 -128.4365
ENERGY: 1200000 5.1682 3.1073 4.3971 0.0000 -10725.9058 1389.2460 0.0000 0.0000 1790.4502 -7533.5370 302.6014 -9323.9872 -7543.0570 300.8576 -440.8825 -379.6313 30636.2576 -239.3134 -178.8848
ENERGY: 1500000 2.1316 3.7457 3.9914 0.0000 -10831.0686 1449.8357 0.0000 0.0000 1770.2100 -7601.1542 299.1806 -9371.3642 -7552.0361 300.1660 -294.0904 -203.7682 30850.6111 -163.7993 -99.9596
TCL: Running FEP window  16: Lambda1 0.24999999999999967 Lambda2 0.19999999999999968 [dLambda -0.04999999999999999]
TCL: Setting parameter firsttimestep to 0
TCL: Setting parameter alchLambda to 0.24999999999999967
Info: NONBONDED TABLE R-SQUARED SPACING: 0.0625
Info: NONBONDED TABLE SIZE: 705 POINTS
TCL: Setting parameter alchLambda2 to 0.19999999999999968
Info: NONBONDED TABLE R-SQUARED SPACING: 0.0625
Info: NONBONDED TABLE SIZE: 705 POINTS
TCL: Running for 1500000 steps
ETITLE: TS BOND ANGLE DIHED IMPRP ELECT VDW BOUNDARY MISC KINETIC TOTAL TEMP POTENTIAL TOTALAVG TEMPAVG PRESSURE GPRESSURE VOLUME PRESSAVG GPRESSAVG
ENERGY: 0 2.1316 3.7457 3.9914 0.0000 -10831.0694 1448.7202 0.0000 0.0000 1769.3231 -7603.1576 299.0307 -9372.4806 -7603.1576 299.0307 -295.3301 -215.0012 30850.6111 -295.3301 -215.0012
ENERGY: 300000 8.6530 2.0670 5.3698 0.0000 -10697.8928 1444.4360 0.0000 0.0000 1751.4033 -7485.9637 296.0021 -9237.3670 -7534.9761 299.8685 -132.8295 -87.0758 30806.2070 -28.5134 12.1526
ENERGY: 600000 1.4764 3.5160 2.2286 0.0000 -10839.5202 1463.4074 0.0000 0.0000 1760.1595 -7608.7324 297.4820 -9368.8919 -7556.3816 299.2212 -211.0211 -94.5360 30725.8904 138.7176 211.4285
ENERGY: 900000 2.2249 1.1832 4.1288 0.0000 -10896.6651 1521.5602 0.0000 0.0000 1747.7834 -7619.7846 295.3903 -9367.5681 -7552.5631 299.2589 333.8876 430.5792 30495.4892 30.2484 105.5054
ENERGY: 1200000 3.8153 2.9482 3.3852 0.0000 -10850.0380 1451.2653 0.0000 0.0000 1773.3893 -7615.2348 299.7179 -9388.6241 -7568.3630 298.9774 -172.1930 -155.9586 30225.6938 43.1162 115.5278
ENERGY: 1500000 0.3208 1.7964 1.5149 0.0000 -10829.9620 1457.6651 0.0000 0.0000 1773.7694 -7594.8954 299.7822 -9368.6648 -7567.1323 299.8169 -246.9950 -125.9146 30588.6066 71.4320 147.4578
TCL: Running FEP window  17: Lambda1 0.19999999999999968 Lambda2 0.1499999999999997 [dLambda -0.04999999999999999]
TCL: Setting parameter firsttimestep to 0
TCL: Setting parameter alchLambda to 0.19999999999999968
Info: NONBONDED TABLE R-SQUARED SPACING: 0.0625
Info: NONBONDED TABLE SIZE: 705 POINTS
TCL: Setting parameter alchLambda2 to 0.1499999999999997
Info: NONBONDED TABLE R-SQUARED SPACING: 0.0625
Info: NONBONDED TABLE SIZE: 705 POINTS
TCL: Running for 1500000 steps
ETITLE: TS BOND ANGLE DIHED IMPRP ELECT VDW BOUNDARY MISC KINETIC TOTAL TEMP POTENTIAL TOTALAVG TEMPAVG PRESSURE GPRESSURE VOLUME PRESSAVG GPRESSAVG
ENERGY: 0 0.3208 1.7964 1.5149 0.0000 -10829.9604 1456.6177 0.0000 0.0000 1772.8611 -7596.8494 299.6286 -9369.7105 -7596.8494 299.6286 -225.0783 -134.7073 30588.6066 -225.0783 -134.7073
ENERGY: 300000 0.6231 3.2431 1.7112 0.0000 -10817.5217 1492.0497 0.0000 0.0000 1789.1152 -7530.7794 302.3757 -9319.8946 -7576.6050 299.2454 321.3092 403.8773 30643.4114 190.6743 259.2264
ENERGY: 600000 0.7727 2.3968 5.6035 0.0000 -10968.7224 1511.9206 0.0000 0.0000 1791.2273 -7656.8015 302.7327 -9448.0288 -7606.6598 298.9342 117.5608 239.2355 30459.6258 43.5434 120.7967
ENERGY: 900000 0.5641 2.2351 2.1186 0.0000 -10727.1223 1437.6405 0.0000 0.0000 1810.8535 -7473.7105 306.0497 -9284.5640 -7583.0925 300.2164 -130.8345 -93.7881 30971.0264 -8.8986 65.7370
ENERGY: 1200000 1.1860 4.4501 3.3699 0.0000 -10739.1254 1404.7149 0.0000 0.0000 1792.2224 -7533.1821 302.9009 -9325.4045 -7568.9785 300.5327 -569.4069 -471.0737 30598.9159 -66.3410 6.9891
ENERGY: 1500000 1.7062 5.7207 1.7796 0.0000 -10771.0553 1405.6890 0.0000 0.0000 1770.5138 -7585.6462 299.2319 -9356.1600 -7558.5299 301.1184 -141.1730 -70.8177 29871.6152 40.9658 113.0976
TCL: Running FEP window  18: Lambda1 0.1499999999999997 Lambda2 0.09999999999999969 [dLambda -0.05 ]
TCL: Setting parameter firsttimestep to 0
TCL: Setting parameter alchLambda to 0.1499999999999997
Info: NONBONDED TABLE R-SQUARED SPACING: 0.0625
Info: NONBONDED TABLE SIZE: 705 POINTS
TCL: Setting parameter alchLambda2 to 0.09999999999999969
Info: NONBONDED TABLE R-SQUARED SPACING: 0.0625
Info: NONBONDED TABLE SIZE: 705 POINTS
TCL: Running for 1500000 steps
ETITLE: TS BOND ANGLE DIHED IMPRP ELECT VDW BOUNDARY MISC KINETIC TOTAL TEMP POTENTIAL TOTALAVG TEMPAVG PRESSURE GPRESSURE VOLUME PRESSAVG GPRESSAVG
ENERGY: 0 1.7062 5.7207 1.7796 0.0000 -10771.0553 1405.8229 0.0000 0.0000 1769.6231 -7586.4029 299.0814 -9356.0260 -7586.4029 299.0814 -136.8840 -69.4285 29871.6152 -136.8840 -69.4285
ENERGY: 300000 2.8919 2.3530 2.1143 0.0000 -10825.4355 1444.4955 0.0000 0.0000 1789.8234 -7583.7573 302.4954 -9373.5807 -7569.9629 299.7342 -110.6515 -5.3560 30122.9446 307.1639 362.1533
ENERGY: 600000 3.1721 2.0850 3.5808 0.0000 -10792.0432 1467.8521 0.0000 0.0000 1786.2102 -7529.1430 301.8848 -9315.3533 -7558.7382 301.6674 257.0960 340.5173 30189.1949 223.5758 282.2048
ENERGY: 900000 2.6689 2.0480 2.3019 0.0000 -10895.2349 1539.1492 0.0000 0.0000 1808.9052 -7540.1617 305.7204 -9349.0669 -7543.3813 302.8618 223.8017 311.5869 30712.5055 133.7025 193.0165
ENERGY: 1200000 2.7332 1.3640 3.1580 0.0000 -10764.1195 1398.9504 0.0000 0.0000 1798.2804 -7559.6335 303.9247 -9357.9139 -7546.7920 302.3359 -410.5573 -363.7763 30373.1450 -0.1728 60.3640
ENERGY: 1500000 1.7753 4.1456 2.6962 0.0000 -10787.4013 1443.0369 0.0000 0.0000 1817.7442 -7518.0031 307.2143 -9335.7474 -7546.9942 301.6892 -245.9052 -171.2676 30807.4908 -37.6080 25.1295
TCL: Running FEP window  19: Lambda1 0.09999999999999969 Lambda2 0.049999999999999684 [dLambda -0.05 ]
TCL: Setting parameter firsttimestep to 0
TCL: Setting parameter alchLambda to 0.09999999999999969
Info: NONBONDED TABLE R-SQUARED SPACING: 0.0625
Info: NONBONDED TABLE SIZE: 705 POINTS
TCL: Setting parameter alchLambda2 to 0.049999999999999684
Info: NONBONDED TABLE R-SQUARED SPACING: 0.0625
Info: NONBONDED TABLE SIZE: 705 POINTS
TCL: Running for 1500000 steps
ETITLE: TS BOND ANGLE DIHED IMPRP ELECT VDW BOUNDARY MISC KINETIC TOTAL TEMP POTENTIAL TOTALAVG TEMPAVG PRESSURE GPRESSURE VOLUME PRESSAVG GPRESSAVG
ENERGY: 0 1.7753 4.1456 2.6962 0.0000 -10787.4009 1442.5335 0.0000 0.0000 1816.8588 -7519.3915 307.0646 -9336.2503 -7519.3915 307.0646 -250.5094 -173.5541 30807.4908 -250.5094 -173.5541
ENERGY: 300000 2.5148 5.4831 2.5818 0.0000 -10727.4169 1404.7017 0.0000 0.0000 1766.3187 -7545.8168 298.5229 -9312.1355 -7563.9643 302.4132 -315.4952 -292.7847 30511.7961 -148.5158 -108.7412
ENERGY: 600000 4.8460 2.9894 3.0114 0.0000 -10826.7540 1474.1450 0.0000 0.0000 1810.6119 -7531.1503 306.0089 -9341.7622 -7563.3890 304.4806 -29.4213 26.6435 30728.9129 -110.6116 -59.0828
ENERGY: 900000 4.2473 2.1694 1.5232 0.0000 -10858.8997 1531.6856 0.0000 0.0000 1780.1615 -7539.1126 300.8625 -9319.2742 -7555.9678 303.4190 874.7439 887.1729 30113.4365 5.2533 40.6567
ENERGY: 1200000 1.8777 1.4354 2.1117 0.0000 -10790.6453 1409.4967 0.0000 0.0000 1760.1603 -7615.5633 297.4821 -9375.7237 -7565.0475 303.6411 -529.7035 -480.9844 30373.7707 73.9409 110.7548
ENERGY: 1500000 2.2538 3.6440 4.6613 0.0000 -10833.0833 1485.3827 0.0000 0.0000 1751.8319 -7585.3097 296.0745 -9337.1416 -7570.6609 302.3059 37.3314 46.5075 30734.1151 73.0560 103.8465
TCL: Running FEP window  20: Lambda1 0.049999999999999684 Lambda2 0.0    [dLambda -0.049999999999999684]
TCL: Setting parameter firsttimestep to 0
TCL: Setting parameter alchLambda to 0.049999999999999684
Info: NONBONDED TABLE R-SQUARED SPACING: 0.0625
Info: NONBONDED TABLE SIZE: 705 POINTS
TCL: Setting parameter alchLambda2 to 0.0
Info: NONBONDED TABLE R-SQUARED SPACING: 0.0625
Info: NONBONDED TABLE SIZE: 705 POINTS
TCL: Running for 1500000 steps
ETITLE: TS BOND ANGLE DIHED IMPRP ELECT VDW BOUNDARY MISC KINETIC TOTAL TEMP POTENTIAL TOTALAVG TEMPAVG PRESSURE GPRESSURE VOLUME PRESSAVG GPRESSAVG
ENERGY: 0 2.2538 3.6440 4.6613 0.0000 -10833.0829 1485.5955 0.0000 0.0000 1750.9402 -7585.9882 295.9238 -9336.9284 -7585.9882 295.9238 -18.8762 46.3474 30734.1151 -18.8762 46.3474
ENERGY: 300000 4.7469 3.7530 3.3808 0.0000 -10773.7383 1435.8192 0.0000 0.0000 1757.2727 -7568.7657 296.9941 -9326.0384 -7571.8660 299.8090 -66.1164 -30.1806 30219.0310 -254.2719 -195.7525
ENERGY: 600000 2.2443 1.9536 3.7489 0.0000 -10780.0328 1405.2318 0.0000 0.0000 1772.8418 -7594.0124 299.6254 -9366.8542 -7583.4648 298.2554 -537.5141 -534.5415 30779.0204 -222.5835 -177.9693
ENERGY: 900000 0.5668 1.7496 3.1857 0.0000 -10965.0630 1568.1360 0.0000 0.0000 1715.6288 -7675.7961 289.9559 -9391.4249 -7597.2742 296.3576 780.9815 743.5788 30342.2339 -50.4641 -4.3023
ENERGY: 1200000 2.8967 3.2775 1.6677 0.0000 -10813.0216 1482.7479 0.0000 0.0000 1763.5758 -7558.8559 298.0593 -9322.4316 -7593.9320 297.2511 15.6600 135.5424 30677.5079 -53.4622 -1.0683
ENERGY: 1500000 0.5254 2.6760 2.7991 0.0000 -10926.2848 1518.4116 0.0000 0.0000 1795.0806 -7606.7922 303.3839 -9401.8728 -7586.8376 298.8941 304.8275 333.9149 30439.5583 -78.3442 -28.3728
TCL: Exiting due to exit command.
