Info: SIMULATION PARAMETERS:
Info: TIMESTEP               2
Info: NUMBER OF STEPS        0
Info: STEPS PER CYCLE        10
Info: PERIODIC CELL BASIS 1  31.0421 0 0
Info: PERIODIC CELL BASIS 2  0 31.27 0
Info: PERIODIC CELL BASIS 3  0 0 31.6743
Info: PERIODIC CELL CENTER   0 0 0
Info: WRAPPING WATERS AROUND PERIODIC BOUNDARIES ON OUTPUT.
Info: WRAPPING ALL CLUSTERS AROUND PERIODIC BOUNDARIES ON OUTPUT.
Info: FIRST LDB TIMESTEP     50
Info: LAST LDB TIMESTEP     -1
Info: HOM BACKGROUND SCALING 1
Info: PME BACKGROUND SCALING 1
Info: MIN ATOMS PER PATCH    40
Info: EMPTY PATCH LOAD       40 ATOMS
Info: VELOCITY FILE          mobley_2068538_equil.vel
Info: CENTER OF MASS MOVING INITIALLY? NO
Info: DIELECTRIC             1
Info: EXCLUDE                SCALED ONE-FOUR
Info: 1-4 ELECTROSTATICS SCALED BY 0.833333
Info: MODIFIED 1-4 VDW PARAMETERS WILL BE USED
Info: DCD FILENAME           mobley_2068538_prod.dcd
Info: DCD FREQUENCY          100000
Info: DCD FIRST STEP         100000
Info: DCD FILE WILL CONTAIN UNIT CELL DATA
Info: XST FILENAME           mobley_2068538_prod.xst
Info: XST FREQUENCY          100000
Info: NO VELOCITY DCD OUTPUT
Info: NO FORCE DCD OUTPUT
Info: OUTPUT FILENAME        mobley_2068538_prod
Info: BINARY OUTPUT FILES WILL BE USED
Info: RESTART FILENAME       mobley_2068538_prod.restart
Info: RESTART FREQUENCY      100000
Info: BINARY RESTART FILES WILL BE USED
Info: CUTOFF                 9
Info: PAIRLIST DISTANCE      11
Info: PAIRLIST SHRINK RATE   0.01
Info: PAIRLIST GROW RATE     0.01
Info: PAIRLIST TRIGGER       0.3
Info: PAIRLISTS PER CYCLE    2
Info: PAIRLISTS ENABLED
Info: MARGIN                 2
Info: HYDROGEN GROUP CUTOFF  2.5
Info: PATCH DIMENSION        15.5
Info: ENERGY OUTPUT STEPS    100000
Info: ENERGY EVALUATION STEPS    100000
Info: OUTPUT ENERGY PRECISION 4
Info: CROSSTERM ENERGY INCLUDED IN DIHEDRAL
Info: TIMING OUTPUT STEPS    1000000
Info: PRESSURE OUTPUT STEPS  100000
Info: ALCHEMICAL FEP ON
Info: FEP CURRENT LAMBDA VALUE     0
Info: FEP COMPARISON LAMBDA VALUE  0.05
Info: FEP INTRA-ALCHEMICAL NON-BONDED INTERACTIONS WILL BE RETAINED
Info: FEP INTRA-ALCHEMICAL BONDED INTERACTIONS WILL BE RETAINED
Info: FEP VDW SHIFTING COEFFICIENT 5
Info: FEP ELEC. ACTIVE FOR ANNIHILATED PARTICLES BETWEEN LAMBDA = 0 AND LAMBDA = 0.5
Info: FEP ELEC. ACTIVE FOR EXNIHILATED PARTICLES BETWEEN LAMBDA = 0.5 AND LAMBDA = 1
Info: FEP VDW ACTIVE FOR ANNIHILATED PARTICLES BETWEEN LAMBDA = 0 AND LAMBDA = 1
Info: FEP VDW ACTIVE FOR EXNIHILATED PARTICLES BETWEEN LAMBDA = 0 AND LAMBDA = 1
Info: FEP BOND ACTIVE FOR ANNIHILATED PARTICLES BETWEEN LAMBDA = 1 AND LAMBDA = 1
Info: FEP BOND ACTIVE FOR EXNIHILATED PARTICLES BETWEEN LAMBDA = 0 AND LAMBDA = 0
Info: LANGEVIN DYNAMICS ACTIVE
Info: LANGEVIN TEMPERATURE   300
Info: LANGEVIN USING BBK INTEGRATOR
Info: LANGEVIN DAMPING COEFFICIENT IS 1 INVERSE PS
Info: LANGEVIN DYNAMICS APPLIED TO HYDROGENS
Info: LANGEVIN PISTON PRESSURE CONTROL ACTIVE
Info:        TARGET PRESSURE IS 1.01325 BAR
Info:     OSCILLATION PERIOD IS 50 FS
Info:             DECAY TIME IS 25 FS
Info:     PISTON TEMPERATURE IS 300 K
Info:       PRESSURE CONTROL IS GROUP-BASED
Info:    INITIAL STRAIN RATE IS -7.97638e-05 -7.97638e-05 -7.97638e-05
Info:       CELL FLUCTUATION IS ISOTROPIC
Info: PARTICLE MESH EWALD (PME) ACTIVE
Info: PME TOLERANCE               1e-06
Info: PME EWALD COEFFICIENT       0.348832
Info: PME INTERPOLATION ORDER     4
Info: PME GRID DIMENSIONS         32 32 32
Info: PME MAXIMUM GRID SPACING    1
Info: PME CALCULATION WILL BE PERFORMED ON GPU
Info: FULL ELECTROSTATIC EVALUATION FREQUENCY      2
Info: USING VERLET I (r-RESPA) MTS SCHEME.
Info: C1 SPLITTING OF LONG RANGE ELECTROSTATICS
Info: PLACING ATOMS IN PATCHES BY HYDROGEN GROUPS
Info: RIGID BONDS TO HYDROGEN : ALL
Info:         ERROR TOLERANCE : 1e-08
Info:          MAX ITERATIONS : 100
Info: RIGID WATER USING SETTLE ALGORITHM
Info: RANDOM NUMBER SEED     1742542328
Info: USE HYDROGEN BONDS?    NO
Info: Using AMBER format force field!
Info: AMBER PARM FILE        mobley_2068538.prmtop
Info: COORDINATE PDB         mobley_2068538.pdb
Info: Exclusions will be read from PARM file!
Info: SCNB (VDW SCALING)     2
Info: USING ARITHMETIC MEAN TO COMBINE L-J SIGMA PARAMETERS
Info: BINARY COORDINATES     mobley_2068538_equil.coor
Info: SUMMARY OF PARAMETERS:
Info: 4 BONDS
Info: 3 ANGLES
Info:   3 HARMONIC
Info:   0 COSINE-BASED
Info: 2 DIHEDRAL
Info: 0 IMPROPER
Info: 0 CROSSTERM
Info: 0 VDW
Info: 10 VDW_PAIRS
Info: 0 NBTHOLE_PAIRS
Info: To read alchdata from file: mobley_2068538.pdb
Info: To read alchflag data from column: 5
Info: STRUCTURE SUMMARY:
Info: 2984 ATOMS
Info: 2983 BONDS
Info: 18 ANGLES
Info: 18 DIHEDRALS
Info: 0 IMPROPERS
Info: 0 CROSSTERMS
Info: 3019 EXCLUSIONS
Info: 2981 RIGID BONDS
Info: ALCH: 0 ATOMS TO DISAPPEAR IN FINAL STATE
Info: ALCH: 11 ATOMS TO APPEAR IN FINAL STATE
Info: 5971 DEGREES OF FREEDOM
Info: 994 HYDROGEN GROUPS
Info: 4 ATOMS IN LARGEST HYDROGEN GROUP
Info: 994 MIGRATION GROUPS
Info: 4 ATOMS IN LARGEST MIGRATION GROUP
Info: TOTAL MASS = 17898 amu
Info: TOTAL CHARGE = 0.000200011 e
Info: MASS DENSITY = 0.966669 g/cm^3
Info: ATOM DENSITY = 0.0970542 atoms/A^3
Info: ADDED 0 IMPLICIT EXCLUSIONS
Info: NONBONDED TABLE R-SQUARED SPACING: 0.0625
Info: NONBONDED TABLE SIZE: 705 POINTS
Info: REDUCING NUMBER OF PATCHES TO IMPROVE LOAD BALANCE
Info: REMOVING COM VELOCITY 0.036576 0.0964645 0.156901
Info: Use 3D box decompostion in PME FFT.
Info: Updated CUDA force table with 4096 elements.
Info: Updated CUDA LJ table with 4 x 4 elements.
Info: Found 14 unique exclusion lists needing 24 bytes
TCL: Running for 1500000 steps
ETITLE: TS BOND ANGLE DIHED IMPRP ELECT VDW BOUNDARY MISC KINETIC TOTAL TEMP POTENTIAL TOTALAVG TEMPAVG PRESSURE GPRESSURE VOLUME PRESSAVG GPRESSAVG
ENERGY: 0 0.1084 2.1517 0.1828 0.0000 -10762.6846 1430.5264 0.0000 0.0000 1729.9192 -7599.7962 291.5877 -9329.7154 -7599.7962 291.5877 -145.9669 -79.8835 30745.7172 -145.9669 -79.8835
ENERGY: 300000 0.8497 5.4048 0.7473 0.0000 -10805.9262 1460.9238 0.0000 0.0000 1750.6122 -7587.3884 295.0756 -9338.0005 -7608.2405 293.6032 -42.2469 95.4706 30747.9079 -62.4991 10.0706
ENERGY: 600000 1.1208 6.8609 0.4846 0.0000 -10938.4308 1567.4376 0.0000 0.0000 1797.6981 -7564.8288 303.0122 -9362.5269 -7594.4492 296.5384 591.5560 607.5424 30901.5913 72.0869 132.9834
ENERGY: 900000 0.0266 4.6196 0.8146 0.0000 -10767.8426 1418.1951 0.0000 0.0000 1728.0206 -7616.1662 291.2676 -9344.1867 -7593.5282 296.3107 -35.8662 15.0136 30280.7438 67.4710 125.7831
ENERGY: 1200000 0.1097 6.4332 1.2348 0.0000 -10820.1942 1464.3993 0.0000 0.0000 1776.5047 -7571.5124 299.4399 -9348.0172 -7591.9168 296.7579 223.6280 239.3476 30184.1169 135.9089 186.2741
ENERGY: 1500000 1.1995 3.3755 0.5354 0.0000 -10903.5556 1489.4183 0.0000 0.0000 1781.1490 -7627.8779 300.2227 -9409.0269 -7596.3283 298.0098 -164.7610 -68.3703 30994.3459 126.8292 176.3035
TCL: Running FEP window   2: Lambda1 0.05   Lambda2 0.1    [dLambda 0.05  ]
TCL: Setting parameter firsttimestep to 0
TCL: Setting parameter alchLambda to 0.05
Info: NONBONDED TABLE R-SQUARED SPACING: 0.0625
Info: NONBONDED TABLE SIZE: 705 POINTS
TCL: Setting parameter alchLambda2 to 0.1
Info: NONBONDED TABLE R-SQUARED SPACING: 0.0625
Info: NONBONDED TABLE SIZE: 705 POINTS
TCL: Running for 1500000 steps
ETITLE: TS BOND ANGLE DIHED IMPRP ELECT VDW BOUNDARY MISC KINETIC TOTAL TEMP POTENTIAL TOTALAVG TEMPAVG PRESSURE GPRESSURE VOLUME PRESSAVG GPRESSAVG
ENERGY: 0 1.1995 3.3755 0.5354 0.0000 -10903.5564 1491.8780 0.0000 0.0000 1780.3018 -7626.2662 300.0799 -9406.5680 -7626.2662 300.0799 -150.6645 -64.6521 30994.3459 -150.6645 -64.6521
ENERGY: 300000 0.4526 9.5962 0.5638 0.0000 -10838.9637 1467.1643 0.0000 0.0000 1741.2071 -7619.9799 293.4903 -9361.1869 -7582.8980 295.5401 86.5449 116.0187 30661.6950 57.2814 93.9656
ENERGY: 600000 0.4147 5.6949 0.4194 0.0000 -10815.5681 1479.1987 0.0000 0.0000 1726.9907 -7602.8495 291.0940 -9329.8402 -7564.0620 296.6913 51.3273 52.0727 31077.1063 -21.1619 15.8461
ENERGY: 900000 1.9704 4.6749 0.4748 0.0000 -10743.2970 1400.3278 0.0000 0.0000 1788.4832 -7547.3659 301.4589 -9335.8491 -7566.2436 298.6000 -533.5170 -438.5556 31020.0153 -118.4432 -69.7513
ENERGY: 1200000 1.4540 1.9361 0.0605 0.0000 -11016.0760 1589.4415 0.0000 0.0000 1850.7340 -7572.4499 311.9517 -9423.1839 -7575.8507 299.7998 703.9646 746.9751 30898.7923 -26.7232 22.0256
ENERGY: 1500000 0.1220 4.5136 1.1233 0.0000 -10784.1780 1477.9555 0.0000 0.0000 1827.1415 -7473.3222 307.9750 -9300.4637 -7574.4797 301.0075 83.0102 172.7536 30915.5853 -64.4701 -13.3868
TCL: Running FEP window   3: Lambda1 0.1    Lambda2 0.15000000000000002 [dLambda 0.05000000000000002]
TCL: Setting parameter firsttimestep to 0
TCL: Setting parameter alchLambda to 0.1
Info: NONBONDED TABLE R-SQUARED SPACING: 0.0625
Info: NONBONDED TABLE SIZE: 705 POINTS
TCL: Setting parameter alchLambda2 to 0.15000000000000002
Info: NONBONDED TABLE R-SQUARED SPACING: 0.0625
Info: NONBONDED TABLE SIZE: 705 POINTS
TCL: Running for 1500000 steps
ETITLE: TS BOND ANGLE DIHED IMPRP ELECT VDW BOUNDARY MISC KINETIC TOTAL TEMP POTENTIAL TOTALAVG TEMPAVG PRESSURE GPRESSURE VOLUME PRESSAVG GPRESSAVG
ENERGY: 0 0.1220 4.5136 1.1233 0.0000 -10784.1778 1479.9924 0.0000 0.0000 1826.2862 -7472.1404 307.8309 -9298.4266 -7472.1404 307.8309 94.9968 176.6010 30915.5853 94.9968 176.6010
ENERGY: 300000 0.1045 4.4991 0.2862 0.0000 -10911.7553 1506.3830 0.0000 0.0000 1795.1262 -7605.3563 302.5787 -9400.4825 -7568.4404 301.6528 515.9269 591.3576 30056.2618 113.5971 191.0085
ENERGY: 600000 0.3434 5.3384 1.5260 0.0000 -10783.0147 1366.0246 0.0000 0.0000 1784.6428 -7625.1394 300.8116 -9409.7822 -7588.5369 300.1151 -971.7512 -940.5962 30745.7308 -133.1815 -65.0651
ENERGY: 900000 0.7838 4.5352 0.1699 0.0000 -10927.5990 1513.4693 0.0000 0.0000 1717.0338 -7691.6069 289.4158 -9408.6407 -7592.1985 299.7591 287.8673 293.6027 30493.7870 -108.3086 -54.9346
ENERGY: 1200000 0.5991 8.0022 0.1666 0.0000 -10688.3449 1363.6754 0.0000 0.0000 1787.6583 -7528.2434 301.3199 -9315.9017 -7592.8164 299.3925 -594.4249 -569.2924 30694.9980 -145.5469 -94.4488
ENERGY: 1500000 1.8105 5.8819 0.1472 0.0000 -10876.4307 1515.7636 0.0000 0.0000 1742.6570 -7610.1705 293.7347 -9352.8275 -7593.2041 299.1352 248.9136 336.2661 30808.9412 -76.9128 -21.3488
TCL: Running FEP window   4: Lambda1 0.15000000000000002 Lambda2 0.2    [dLambda 0.04999999999999999]
TCL: Setting parameter firsttimestep to 0
TCL: Setting parameter alchLambda to 0.15000000000000002
Info: NONBONDED TABLE R-SQUARED SPACING: 0.0625
Info: NONBONDED TABLE SIZE: 705 POINTS
TCL: Setting parameter alchLambda2 to 0.2
Info: NONBONDED TABLE R-SQUARED SPACING: 0.0625
Info: NONBONDED TABLE SIZE: 705 POINTS
TCL: Running for 1500000 steps
ETITLE: TS BOND ANGLE DIHED IMPRP ELECT VDW BOUNDARY MISC KINETIC TOTAL TEMP POTENTIAL TOTALAVG TEMPAVG PRESSURE GPRESSURE VOLUME PRESSAVG GPRESSAVG
ENERGY: 0 1.8105 5.8819 0.1472 0.0000 -10876.4302 1515.5800 0.0000 0.0000 1741.7456 -7611.2649 293.5811 -9353.0105 -7611.2649 293.5811 246.5145 334.7922 30808.9412 246.5145 334.7922
ENERGY: 300000 1.9407 5.5854 0.9814 0.0000 -10685.7786 1391.0721 0.0000 0.0000 1757.7844 -7528.4146 296.2845 -9286.1991 -7607.5069 298.7471 -565.1934 -479.5802 31026.0886 -63.9282 10.5076
ENERGY: 600000 0.4985 5.8271 0.8379 0.0000 -10696.4891 1369.5580 0.0000 0.0000 1792.8261 -7526.9415 302.1910 -9319.7676 -7574.5326 300.0822 -581.6166 -557.0957 30883.3895 -63.6324 3.2698
ENERGY: 900000 2.1736 5.6406 0.7926 0.0000 -10702.6607 1347.8136 0.0000 0.0000 1747.6121 -7598.6282 294.5699 -9346.2403 -7572.4387 299.6750 -861.3389 -925.3601 30999.3511 -269.7391 -218.0247
ENERGY: 1200000 0.8996 5.3255 0.5096 0.0000 -10946.0928 1515.9105 0.0000 0.0000 1861.6238 -7561.8239 313.7872 -9423.4477 -7577.1721 299.5792 480.5200 495.1398 30151.7662 -172.8206 -122.9318
ENERGY: 1500000 0.8154 6.8101 0.2151 0.0000 -10761.8420 1367.6013 0.0000 0.0000 1793.4211 -7592.9789 302.2913 -9386.4000 -7581.2925 300.3707 -875.1026 -812.7362 30842.9018 -150.8874 -96.7841
TCL: Running FEP window   5: Lambda1 0.2    Lambda2 0.25   [dLambda 0.04999999999999999]
TCL: Setting parameter firsttimestep to 0
TCL: Setting parameter alchLambda to 0.2
Info: NONBONDED TABLE R-SQUARED SPACING: 0.0625
Info: NONBONDED TABLE SIZE: 705 POINTS
TCL: Setting parameter alchLambda2 to 0.25
Info: NONBONDED TABLE R-SQUARED SPACING: 0.0625
Info: NONBONDED TABLE SIZE: 705 POINTS
TCL: Running for 1500000 steps
ETITLE: TS BOND ANGLE DIHED IMPRP ELECT VDW BOUNDARY MISC KINETIC TOTAL TEMP POTENTIAL TOTALAVG TEMPAVG PRESSURE GPRESSURE VOLUME PRESSAVG GPRESSAVG
ENERGY: 0 0.8154 6.8101 0.2151 0.0000 -10761.8427 1369.9319 0.0000 0.0000 1792.5504 -7591.5198 302.1445 -9384.0702 -7591.5198 302.1445 -883.3811 -800.2986 30842.9018 -883.3811 -800.2986
ENERGY: 300000 0.1219 1.9883 0.1944 0.0000 -10616.9000 1303.9418 0.0000 0.0000 1742.0779 -7568.5756 293.6371 -9310.6535 -7579.2759 299.7317 -1411.3325 -1371.7509 31451.7877 -544.0220 -458.8645
ENERGY: 600000 0.5247 5.1411 0.8487 0.0000 -10781.1497 1412.7986 0.0000 0.0000 1783.3736 -7578.4630 300.5977 -9361.8366 -7594.7743 299.6112 -749.9282 -699.6755 31387.8026 -416.7053 -337.7067
ENERGY: 900000 0.5417 7.1413 0.1812 0.0000 -10650.3002 1403.5887 0.0000 0.0000 1771.7725 -7467.0748 298.6423 -9238.8473 -7580.0418 299.8601 -233.7435 -190.4000 30861.1565 -430.0307 -353.3537
ENERGY: 1200000 1.6910 4.5916 1.2687 0.0000 -10872.8153 1446.0298 0.0000 0.0000 1728.8529 -7690.3814 291.4079 -9419.2344 -7589.5389 298.5625 -521.8760 -378.0545 30734.9830 -481.7680 -394.9985
ENERGY: 1500000 0.0504 6.7496 0.5381 0.0000 -10683.3470 1412.7251 0.0000 0.0000 1762.2063 -7501.0774 297.0298 -9263.2837 -7575.3327 299.2382 -111.2121 -19.5226 30763.6586 -382.8375 -296.6415
TCL: Running FEP window   6: Lambda1 0.25   Lambda2 0.3    [dLambda 0.04999999999999999]
TCL: Setting parameter firsttimestep to 0
TCL: Setting parameter alchLambda to 0.25
Info: NONBONDED TABLE R-SQUARED SPACING: 0.0625
Info: NONBONDED TABLE SIZE: 705 POINTS
TCL: Setting parameter alchLambda2 to 0.3
Info: NONBONDED TABLE R-SQUARED SPACING: 0.0625
Info: NONBONDED TABLE SIZE: 705 POINTS
TCL: Running for 1500000 steps
ETITLE: TS BOND ANGLE DIHED IMPRP ELECT VDW BOUNDARY MISC KINETIC TOTAL TEMP POTENTIAL TOTALAVG TEMPAVG PRESSURE GPRESSURE VOLUME PRESSAVG GPRESSAVG
ENERGY: 0 0.0504 6.7495 0.5381 0.0000 -10683.3462 1412.6306 0.0000 0.0000 1761.3499 -7502.0275 296.8855 -9263.3774 -7502.0275 296.8855 -94.1846 -17.8383 30763.6586 -94.1846 -17.8383
ENERGY: 300000 0.3092 4.9954 0.6629 0.0000 -10728.7693 1408.9062 0.0000 0.0000 1812.8093 -7501.0863 305.5593 -9313.8956 -7526.6276 301.7411 -218.2837 -252.0137 30719.8721 -318.5996 -275.5890
ENERGY: 600000 2.0570 3.5964 0.1144 0.0000 -10817.6559 1423.0864 0.0000 0.0000 1782.7578 -7606.0437 300.4939 -9388.8015 -7557.4688 301.2597 -339.1640 -284.6267 30484.0480 -190.3106 -136.3510
ENERGY: 900000 1.7140 3.1158 0.2340 0.0000 -10756.2811 1366.6450 0.0000 0.0000 1735.6629 -7648.9095 292.5558 -9384.5723 -7567.2487 299.9507 -846.0038 -823.3182 30762.6506 -144.8296 -97.2657
ENERGY: 1200000 0.7944 4.9438 0.5364 0.0000 -10782.8310 1413.8191 0.0000 0.0000 1733.2034 -7629.5338 292.1412 -9362.7372 -7569.3076 300.2755 -312.9852 -326.8262 30775.0913 -213.8950 -167.3125
ENERGY: 1500000 0.4177 5.6569 0.5186 0.0000 -10926.2044 1555.7781 0.0000 0.0000 1813.2040 -7550.6291 305.6258 -9363.8331 -7566.4004 300.8562 1000.0264 1033.6047 30175.0350 -154.8865 -109.6284
TCL: Running FEP window   7: Lambda1 0.3    Lambda2 0.35   [dLambda 0.04999999999999999]
TCL: Setting parameter firsttimestep to 0
TCL: Setting parameter alchLambda to 0.3
Info: NONBONDED TABLE R-SQUARED SPACING: 0.0625
Info: NONBONDED TABLE SIZE: 705 POINTS
TCL: Setting parameter alchLambda2 to 0.35
Info: NONBONDED TABLE R-SQUARED SPACING: 0.0625
Info: NONBONDED TABLE SIZE: 705 POINTS
TCL: Running for 1500000 steps
ETITLE: TS BOND ANGLE DIHED IMPRP ELECT VDW BOUNDARY MISC KINETIC TOTAL TEMP POTENTIAL TOTALAVG TEMPAVG PRESSURE GPRESSURE VOLUME PRESSAVG GPRESSAVG
ENERGY: 0 0.4177 5.6569 0.5186 0.0000 -10926.2048 1555.7321 0.0000 0.0000 1812.2807 -7551.5989 305.4701 -9363.8796 -7551.5989 305.4701 959.0962 1035.3599 30175.0350 959.0962 1035.3599
ENERGY: 300000 1.0950 2.2437 2.1590 0.0000 -10874.9183 1566.4707 0.0000 0.0000 1806.2477 -7496.7022 304.4533 -9302.9499 -7540.7451 302.2915 1137.7633 1184.2529 30411.8053 379.3042 464.0243
ENERGY: 600000 0.2448 4.0317 1.3922 0.0000 -10866.2392 1512.4122 0.0000 0.0000 1840.8141 -7507.3441 310.2796 -9348.1582 -7541.2661 303.2943 881.1427 888.5902 30137.1221 447.1208 508.8426
ENERGY: 900000 0.4015 4.1345 0.4577 0.0000 -10798.0421 1487.5263 0.0000 0.0000 1798.9349 -7506.5873 303.2206 -9305.5221 -7535.8803 303.6825 301.4197 366.0809 30723.0457 460.9984 521.8767
ENERGY: 1200000 1.8196 5.4488 0.5993 0.0000 -10741.6097 1373.3556 0.0000 0.0000 1812.7840 -7547.6025 305.5550 -9360.3865 -7559.6274 302.0560 -743.9714 -627.7146 31148.5281 292.7482 359.7632
ENERGY: 1500000 0.1233 4.5545 1.0957 0.0000 -10841.7238 1470.2032 0.0000 0.0000 1780.1669 -7585.5803 300.0572 -9365.7472 -7570.1533 301.3263 42.9088 75.6802 30706.5090 210.1604 279.0464
TCL: Running FEP window   8: Lambda1 0.35   Lambda2 0.39999999999999997 [dLambda 0.04999999999999999]
TCL: Setting parameter firsttimestep to 0
TCL: Setting parameter alchLambda to 0.35
Info: NONBONDED TABLE R-SQUARED SPACING: 0.0625
Info: NONBONDED TABLE SIZE: 705 POINTS
TCL: Setting parameter alchLambda2 to 0.39999999999999997
Info: NONBONDED TABLE R-SQUARED SPACING: 0.0625
Info: NONBONDED TABLE SIZE: 705 POINTS
TCL: Running for 1500000 steps
ETITLE: TS BOND ANGLE DIHED IMPRP ELECT VDW BOUNDARY MISC KINETIC TOTAL TEMP POTENTIAL TOTALAVG TEMPAVG PRESSURE GPRESSURE VOLUME PRESSAVG GPRESSAVG
ENERGY: 0 0.1233 4.5545 1.0957 0.0000 -10841.7243 1471.5846 0.0000 0.0000 1779.2840 -7585.0822 299.9084 -9364.3662 -7585.0822 299.9084 17.2651 85.6446 30706.5090 17.2651 85.6446
ENERGY: 300000 0.8471 3.9447 0.6130 0.0000 -10889.1434 1463.6268 0.0000 0.0000 1816.1986 -7603.9132 306.1305 -9420.1118 -7626.4189 300.6916 -262.2556 -179.3929 30713.8768 5.4107 78.9244
ENERGY: 600000 0.3746 3.8288 0.1715 0.0000 -10790.4850 1433.2730 0.0000 0.0000 1784.7461 -7568.0909 300.8290 -9352.8370 -7616.0854 300.0025 -432.9156 -363.2072 31260.6390 -98.7271 -33.1710
ENERGY: 900000 0.5471 6.1613 0.0671 0.0000 -10750.7595 1358.9700 0.0000 0.0000 1778.5041 -7606.5098 299.7769 -9385.0139 -7594.4360 300.7926 -772.1648 -736.8309 30845.4279 -68.3053 -5.9962
ENERGY: 1200000 0.0227 5.6450 0.3166 0.0000 -10758.2168 1452.7828 0.0000 0.0000 1778.8997 -7520.5500 299.8436 -9299.4496 -7584.3600 300.4235 318.6924 414.1226 30378.5451 -54.2881 10.1372
ENERGY: 1500000 0.1595 5.9430 0.3604 0.0000 -10700.5082 1406.9414 0.0000 0.0000 1761.9250 -7525.1790 296.9824 -9287.1040 -7595.5228 299.7058 -397.9360 -339.3402 30875.8690 -57.8261 14.9916
TCL: Running FEP window   9: Lambda1 0.39999999999999997 Lambda2 0.44999999999999996 [dLambda 0.04999999999999999]
TCL: Setting parameter firsttimestep to 0
TCL: Setting parameter alchLambda to 0.39999999999999997
Info: NONBONDED TABLE R-SQUARED SPACING: 0.0625
Info: NONBONDED TABLE SIZE: 705 POINTS
TCL: Setting parameter alchLambda2 to 0.44999999999999996
Info: NONBONDED TABLE R-SQUARED SPACING: 0.0625
Info: NONBONDED TABLE SIZE: 705 POINTS
TCL: Running for 1500000 steps
ETITLE: TS BOND ANGLE DIHED IMPRP ELECT VDW BOUNDARY MISC KINETIC TOTAL TEMP POTENTIAL TOTALAVG TEMPAVG PRESSURE GPRESSURE VOLUME PRESSAVG GPRESSAVG
ENERGY: 0 0.1595 5.9430 0.3604 0.0000 -10700.5084 1406.8238 0.0000 0.0000 1761.0282 -7526.1936 296.8312 -9287.2218 -7526.1936 296.8312 -416.5808 -339.2151 30875.8690 -416.5808 -339.2151
ENERGY: 300000 1.9789 3.6320 0.6416 0.0000 -10818.5710 1416.8962 0.0000 0.0000 1717.9451 -7677.4772 289.5694 -9395.4224 -7570.4236 296.8823 -651.1195 -576.8835 30598.3199 -309.3270 -223.7671
ENERGY: 600000 0.0444 9.2510 0.1581 0.0000 -10832.2594 1472.1414 0.0000 0.0000 1773.1125 -7577.5519 298.8681 -9350.6645 -7575.7679 297.1398 -230.1059 -104.9336 31189.9189 -301.5824 -226.3650
ENERGY: 900000 0.5641 6.9485 1.0274 0.0000 -10852.3385 1483.1425 0.0000 0.0000 1770.9831 -7589.6729 298.5092 -9360.6561 -7562.1331 297.9231 86.7328 182.8645 30539.5345 -179.3519 -99.4378
ENERGY: 1200000 0.7414 3.6618 0.5149 0.0000 -10982.2234 1583.2878 0.0000 0.0000 1773.2981 -7620.7194 298.8994 -9394.0175 -7572.5114 297.5144 1215.5575 1239.6742 30013.2404 -72.3463 5.6213
ENERGY: 1500000 0.7131 3.8032 0.3527 0.0000 -10781.9696 1441.0997 0.0000 0.0000 1746.1126 -7589.8883 294.3171 -9336.0009 -7572.1079 297.6361 -480.5788 -396.8615 31158.0201 -160.6871 -87.3081
TCL: Running FEP window  10: Lambda1 0.44999999999999996 Lambda2 0.49999999999999994 [dLambda 0.04999999999999999]
TCL: Setting parameter firsttimestep to 0
TCL: Setting parameter alchLambda to 0.44999999999999996
Info: NONBONDED TABLE R-SQUARED SPACING: 0.0625
Info: NONBONDED TABLE SIZE: 705 POINTS
TCL: Setting parameter alchLambda2 to 0.49999999999999994
Info: NONBONDED TABLE R-SQUARED SPACING: 0.0625
Info: NONBONDED TABLE SIZE: 705 POINTS
TCL: Running for 1500000 steps
ETITLE: TS BOND ANGLE DIHED IMPRP ELECT VDW BOUNDARY MISC KINETIC TOTAL TEMP POTENTIAL TOTALAVG TEMPAVG PRESSURE GPRESSURE VOLUME PRESSAVG GPRESSAVG
ENERGY: 0 0.7131 3.8032 0.3527 0.0000 -10781.9698 1442.9646 0.0000 0.0000 1745.2131 -7588.9231 294.1655 -9334.1362 -7588.9231 294.1655 -455.3888 -378.4497 31158.0201 -455.3888 -378.4497
ENERGY: 300000 0.7405 4.8314 0.4188 0.0000 -10927.9750 1517.0356 0.0000 0.0000 1786.3116 -7618.6370 301.0929 -9404.9486 -7566.3963 301.1145 342.4121 425.8117 30738.9436 154.8503 248.4265
ENERGY: 600000 0.0885 4.3410 0.0680 0.0000 -10814.6065 1477.3673 0.0000 0.0000 1786.3583 -7546.3833 301.1008 -9332.7416 -7546.0455 302.3649 339.5829 439.5123 30449.5469 74.8424 148.7997
ENERGY: 900000 0.6055 3.3377 0.7339 0.0000 -10896.7308 1523.3574 0.0000 0.0000 1777.4807 -7591.2155 299.6044 -9368.6962 -7579.3094 300.7905 590.0402 596.7084 30611.8011 162.2366 217.8016
ENERGY: 1200000 0.1087 5.1943 0.9100 0.0000 -10745.9511 1421.2401 0.0000 0.0000 1740.8085 -7577.6895 293.4231 -9318.4980 -7578.2967 299.6927 -38.4418 7.6396 30420.6001 117.7501 168.8663
ENERGY: 1500000 0.8576 3.0156 0.9999 0.0000 -10892.4265 1508.8636 0.0000 0.0000 1785.4145 -7593.2753 300.9417 -9378.6898 -7576.7894 299.6087 265.4845 369.9087 30604.4503 71.0968 127.3752
TCL: Running FEP window  11: Lambda1 0.49999999999999994 Lambda2 0.5499999999999999 [dLambda 0.04999999999999999]
TCL: Setting parameter firsttimestep to 0
TCL: Setting parameter alchLambda to 0.49999999999999994
Info: NONBONDED TABLE R-SQUARED SPACING: 0.0625
Info: NONBONDED TABLE SIZE: 705 POINTS
TCL: Setting parameter alchLambda2 to 0.5499999999999999
Info: NONBONDED TABLE R-SQUARED SPACING: 0.0625
Info: NONBONDED TABLE SIZE: 705 POINTS
TCL: Running for 1500000 steps
ETITLE: TS BOND ANGLE DIHED IMPRP ELECT VDW BOUNDARY MISC KINETIC TOTAL TEMP POTENTIAL TOTALAVG TEMPAVG PRESSURE GPRESSURE VOLUME PRESSAVG GPRESSAVG
ENERGY: 0 0.8576 3.0156 0.9999 0.0000 -10892.4258 1509.1444 0.0000 0.0000 1784.5224 -7593.8859 300.7913 -9378.4083 -7593.8859 300.7913 268.5617 377.2223 30604.4503 268.5617 377.2223
ENERGY: 300000 0.6627 5.0459 0.5462 0.0000 -10840.5766 1471.0352 0.0000 0.0000 1743.2119 -7620.0747 293.8282 -9363.2866 -7572.5653 300.9358 -143.6033 -115.0484 30988.3333 77.4280 132.8238
ENERGY: 600000 0.7445 2.8678 0.1850 0.0000 -10675.2867 1417.1205 0.0000 0.0000 1841.7468 -7412.6222 310.4368 -9254.3690 -7542.3767 302.6309 -103.4993 -44.5516 31097.4615 195.3157 251.7900
ENERGY: 900000 3.3710 6.1325 1.1086 0.0000 -10962.5636 1515.6051 0.0000 0.0000 1815.3379 -7621.0085 305.9855 -9436.3463 -7537.8809 302.9620 164.4152 243.6659 30523.2572 63.4846 128.1086
ENERGY: 1200000 0.0973 4.7147 0.9971 0.0000 -10854.2561 1431.9500 0.0000 0.0000 1817.7150 -7598.7819 306.3861 -9416.4970 -7532.3417 304.1613 -497.3489 -421.5051 30912.1210 23.0227 83.2218
ENERGY: 1500000 0.1206 5.1069 0.1816 0.0000 -10669.6575 1405.8117 0.0000 0.0000 1759.4406 -7498.9961 296.5636 -9258.4367 -7537.0835 302.5680 -339.7944 -323.1536 31297.2697 -25.8055 26.9133
TCL: Running FEP window  12: Lambda1 0.5499999999999999 Lambda2 0.6    [dLambda 0.050000000000000044]
TCL: Setting parameter firsttimestep to 0
TCL: Setting parameter alchLambda to 0.5499999999999999
Info: NONBONDED TABLE R-SQUARED SPACING: 0.0625
Info: NONBONDED TABLE SIZE: 705 POINTS
TCL: Setting parameter alchLambda2 to 0.6
Info: NONBONDED TABLE R-SQUARED SPACING: 0.0625
Info: NONBONDED TABLE SIZE: 705 POINTS
TCL: Running for 1500000 steps
ETITLE: TS BOND ANGLE DIHED IMPRP ELECT VDW BOUNDARY MISC KINETIC TOTAL TEMP POTENTIAL TOTALAVG TEMPAVG PRESSURE GPRESSURE VOLUME PRESSAVG GPRESSAVG
ENERGY: 0 0.1205 5.1069 0.1816 0.0000 -10669.6544 1405.5771 0.0000 0.0000 1758.5439 -7500.1244 296.4125 -9258.6683 -7500.1244 296.4125 -405.0598 -321.3605 31297.2697 -405.0598 -321.3605
ENERGY: 300000 0.9904 4.1748 0.4184 0.0000 -10852.0157 1437.2570 0.0000 0.0000 1796.9334 -7612.2416 302.8833 -9409.1750 -7552.0690 300.6855 -496.3289 -441.7609 30942.5850 -631.9950 -574.5024
ENERGY: 600000 0.7560 5.8896 0.2223 0.0000 -10871.9530 1478.9224 0.0000 0.0000 1825.4122 -7560.7506 307.6835 -9386.1628 -7572.1031 302.1086 97.9887 186.0371 30595.3262 -322.4056 -237.0479
ENERGY: 900000 1.1777 4.3736 0.2524 0.0000 -10874.7525 1540.9345 0.0000 0.0000 1772.6218 -7555.3925 298.7854 -9328.0143 -7569.4772 302.5669 734.7611 840.3612 30306.0881 -98.4094 -7.6539
ENERGY: 1200000 0.1957 3.6030 1.1122 0.0000 -10623.7082 1313.3650 0.0000 0.0000 1787.1109 -7518.3215 301.2276 -9305.4324 -7564.8250 302.9814 -1126.9007 -1102.1679 31189.0882 -140.1681 -64.8748
ENERGY: 1500000 0.0280 6.1610 3.2597 0.0000 -10926.6675 1526.7721 0.0000 0.0000 1754.4633 -7635.9835 295.7247 -9390.4468 -7570.1234 302.2952 245.0111 271.0676 31002.6964 -109.1962 -34.7722
TCL: Running FEP window  13: Lambda1 0.6    Lambda2 0.65   [dLambda 0.050000000000000044]
TCL: Setting parameter firsttimestep to 0
TCL: Setting parameter alchLambda to 0.6
Info: NONBONDED TABLE R-SQUARED SPACING: 0.0625
Info: NONBONDED TABLE SIZE: 705 POINTS
TCL: Setting parameter alchLambda2 to 0.65
Info: NONBONDED TABLE R-SQUARED SPACING: 0.0625
Info: NONBONDED TABLE SIZE: 705 POINTS
TCL: Running for 1500000 steps
ETITLE: TS BOND ANGLE DIHED IMPRP ELECT VDW BOUNDARY MISC KINETIC TOTAL TEMP POTENTIAL TOTALAVG TEMPAVG PRESSURE GPRESSURE VOLUME PRESSAVG GPRESSAVG
ENERGY: 0 0.0280 6.1610 3.2597 0.0000 -10926.6434 1526.7697 0.0000 0.0000 1753.5691 -7636.8559 295.5740 -9390.4250 -7636.8559 295.5740 195.7193 275.5785 31002.6964 195.7193 275.5785
ENERGY: 300000 0.4371 2.3839 0.3900 0.0000 -10962.5193 1551.3277 0.0000 0.0000 1760.9358 -7647.0448 296.8157 -9407.9807 -7622.1963 298.3451 477.3982 597.3897 30653.2214 163.5000 248.5727
ENERGY: 600000 0.7922 4.3630 0.0778 0.0000 -10816.0363 1434.0361 0.0000 0.0000 1779.7626 -7597.0046 299.9890 -9376.7672 -7615.5802 300.2042 -313.2184 -228.0213 30622.3751 -49.8034 38.9279
ENERGY: 900000 0.7859 8.0858 0.3490 0.0000 -10673.5530 1359.6231 0.0000 0.0000 1742.4891 -7562.2203 293.7064 -9304.7093 -7617.1160 298.2130 -1087.8928 -954.9572 31368.1838 -69.9631 18.5327
ENERGY: 1200000 0.5601 2.6650 1.6924 0.0000 -10817.6105 1519.5972 0.0000 0.0000 1780.8466 -7512.2494 300.1717 -9293.0959 -7597.6072 299.0746 818.5400 881.9725 30565.8039 34.2601 124.0489
ENERGY: 1500000 1.0356 5.2162 1.1312 0.0000 -10709.4475 1487.7140 0.0000 0.0000 1712.1262 -7502.2242 288.5885 -9214.3504 -7590.6294 298.7887 372.8742 443.7763 31105.2134 94.7289 180.3321
TCL: Running FEP window  14: Lambda1 0.65   Lambda2 0.7000000000000001 [dLambda 0.050000000000000044]
TCL: Setting parameter firsttimestep to 0
TCL: Setting parameter alchLambda to 0.65
Info: NONBONDED TABLE R-SQUARED SPACING: 0.0625
Info: NONBONDED TABLE SIZE: 705 POINTS
TCL: Setting parameter alchLambda2 to 0.7000000000000001
Info: NONBONDED TABLE R-SQUARED SPACING: 0.0625
Info: NONBONDED TABLE SIZE: 705 POINTS
TCL: Running for 1500000 steps
ETITLE: TS BOND ANGLE DIHED IMPRP ELECT VDW BOUNDARY MISC KINETIC TOTAL TEMP POTENTIAL TOTALAVG TEMPAVG PRESSURE GPRESSURE VOLUME PRESSAVG GPRESSAVG
ENERGY: 0 1.0356 5.2162 1.1312 0.0000 -10709.4514 1487.6779 0.0000 0.0000 1711.2479 -7503.1425 288.4405 -9214.3904 -7503.1425 288.4405 356.9264 445.6567 31105.2134 356.9264 445.6567
ENERGY: 300000 0.0215 3.3392 0.5879 0.0000 -10945.1790 1496.4063 0.0000 0.0000 1727.2378 -7717.5863 291.1357 -9444.8241 -7618.4579 295.7016 125.7407 215.4567 30211.2592 201.5178 263.2638
ENERGY: 600000 0.5754 4.8935 0.1605 0.0000 -10795.7036 1407.9203 0.0000 0.0000 1744.4397 -7637.7142 294.0352 -9382.1539 -7603.0608 296.7955 -574.5938 -520.6572 31064.3161 -101.7432 -15.8132
ENERGY: 900000 0.9697 5.0493 0.3075 0.0000 -10795.0913 1468.4135 0.0000 0.0000 1786.4323 -7533.9190 301.1133 -9320.3513 -7589.7968 298.7482 137.6493 188.7972 30717.4438 -80.9457 -10.1384
ENERGY: 1200000 0.5411 3.1507 2.0172 0.0000 -10768.2142 1455.7368 0.0000 0.0000 1733.5531 -7573.2153 292.2002 -9306.7684 -7584.5433 298.5177 -158.8171 -124.6614 30968.7961 -65.5925 1.8705
ENERGY: 1500000 0.3897 4.3019 0.6312 0.0000 -10761.1654 1392.9469 0.0000 0.0000 1762.8472 -7600.0486 297.1379 -9362.8958 -7584.9578 297.7444 -481.5510 -402.2851 30615.8385 -91.3071 -20.2713
TCL: Running FEP window  15: Lambda1 0.7000000000000001 Lambda2 0.7500000000000001 [dLambda 0.050000000000000044]
TCL: Setting parameter firsttimestep to 0
TCL: Setting parameter alchLambda to 0.7000000000000001
Info: NONBONDED TABLE R-SQUARED SPACING: 0.0625
Info: NONBONDED TABLE SIZE: 705 POINTS
TCL: Setting parameter alchLambda2 to 0.7500000000000001
Info: NONBONDED TABLE R-SQUARED SPACING: 0.0625
Info: NONBONDED TABLE SIZE: 705 POINTS
TCL: Running for 1500000 steps
ETITLE: TS BOND ANGLE DIHED IMPRP ELECT VDW BOUNDARY MISC KINETIC TOTAL TEMP POTENTIAL TOTALAVG TEMPAVG PRESSURE GPRESSURE VOLUME PRESSAVG GPRESSAVG
ENERGY: 0 0.3897 4.3019 0.6312 0.0000 -10761.1427 1393.4522 0.0000 0.0000 1761.9488 -7600.4190 296.9864 -9362.3677 -7600.4190 296.9864 -486.0815 -393.0236 30615.8385 -486.0815 -393.0236
ENERGY: 300000 0.1437 6.0945 1.0804 0.0000 -10892.6211 1493.7409 0.0000 0.0000 1785.0921 -7606.4695 300.8874 -9391.5616 -7600.1975 297.9893 332.4540 380.9362 30431.1703 -22.8600 80.4811
ENERGY: 600000 3.7736 2.9431 0.4028 0.0000 -10736.3243 1431.8430 0.0000 0.0000 1789.5922 -7507.7696 301.6459 -9297.3619 -7580.2287 300.1858 -247.3323 -139.3668 30942.0665 -102.8144 -16.0655
ENERGY: 900000 0.2405 2.6850 0.7229 0.0000 -10727.2171 1432.7679 0.0000 0.0000 1787.6202 -7503.1806 301.3135 -9290.8008 -7567.1696 301.9960 -207.7189 -79.3299 30882.9826 -124.3833 -48.6757
ENERGY: 1200000 0.1182 3.7374 0.3112 0.0000 -10680.6218 1460.9527 0.0000 0.0000 1758.6516 -7456.8507 296.4307 -9215.5023 -7554.6373 301.0522 455.7400 534.9414 30554.5418 -31.5868 40.7599
ENERGY: 1500000 0.3962 4.5094 0.1836 0.0000 -10833.8375 1457.9228 0.0000 0.0000 1833.2155 -7537.6100 308.9988 -9370.8255 -7561.0231 300.8698 322.8551 420.8539 30207.8074 62.8290 131.3296
TCL: Running FEP window  16: Lambda1 0.7500000000000001 Lambda2 0.8000000000000002 [dLambda 0.050000000000000044]
TCL: Setting parameter firsttimestep to 0
TCL: Setting parameter alchLambda to 0.7500000000000001
Info: NONBONDED TABLE R-SQUARED SPACING: 0.0625
Info: NONBONDED TABLE SIZE: 705 POINTS
TCL: Setting parameter alchLambda2 to 0.8000000000000002
Info: NONBONDED TABLE R-SQUARED SPACING: 0.0625
Info: NONBONDED TABLE SIZE: 705 POINTS
TCL: Running for 1500000 steps
ETITLE: TS BOND ANGLE DIHED IMPRP ELECT VDW BOUNDARY MISC KINETIC TOTAL TEMP POTENTIAL TOTALAVG TEMPAVG PRESSURE GPRESSURE VOLUME PRESSAVG GPRESSAVG
ENERGY: 0 0.3962 4.5094 0.1836 0.0000 -10833.8259 1458.2627 0.0000 0.0000 1832.3050 -7538.1689 308.8454 -9370.4740 -7538.1689 308.8454 333.6373 432.8893 30207.8074 333.6373 432.8893
ENERGY: 300000 0.0628 6.6212 1.4066 0.0000 -10812.5498 1521.5648 0.0000 0.0000 1769.2707 -7513.6238 298.2206 -9282.8945 -7574.3678 302.3681 804.5209 862.6266 30588.4947 86.5905 135.8923
ENERGY: 600000 0.7639 3.5697 0.6287 0.0000 -10721.7110 1413.1705 0.0000 0.0000 1734.6559 -7568.9223 292.3861 -9303.5783 -7579.5086 301.0777 -151.8753 -119.1500 30713.5755 -191.3315 -128.8718
ENERGY: 900000 0.8095 3.7611 1.7668 0.0000 -10802.5630 1423.1685 0.0000 0.0000 1732.3327 -7640.7244 291.9945 -9373.0571 -7583.9898 300.5833 -471.1495 -419.1624 30808.4031 -199.8224 -130.6722
ENERGY: 1200000 0.0354 6.1481 2.0367 0.0000 -10753.0608 1396.1229 0.0000 0.0000 1787.0244 -7561.6933 301.2131 -9348.7177 -7582.1036 300.6855 -514.5102 -469.4923 30833.8921 -242.5966 -169.9784
ENERGY: 1500000 1.9612 5.0407 2.4168 0.0000 -10904.1850 1488.4000 0.0000 0.0000 1800.4757 -7605.8906 303.4804 -9406.3664 -7583.2367 300.5148 176.0035 252.4413 30303.3124 -162.8803 -93.1623
TCL: Running FEP window  17: Lambda1 0.8000000000000002 Lambda2 0.8500000000000002 [dLambda 0.050000000000000044]
TCL: Setting parameter firsttimestep to 0
TCL: Setting parameter alchLambda to 0.8000000000000002
Info: NONBONDED TABLE R-SQUARED SPACING: 0.0625
Info: NONBONDED TABLE SIZE: 705 POINTS
TCL: Setting parameter alchLambda2 to 0.8500000000000002
Info: NONBONDED TABLE R-SQUARED SPACING: 0.0625
Info: NONBONDED TABLE SIZE: 705 POINTS
TCL: Running for 1500000 steps
ETITLE: TS BOND ANGLE DIHED IMPRP ELECT VDW BOUNDARY MISC KINETIC TOTAL TEMP POTENTIAL TOTALAVG TEMPAVG PRESSURE GPRESSURE VOLUME PRESSAVG GPRESSAVG
ENERGY: 0 1.9612 5.0407 2.4168 0.0000 -10904.1889 1488.2337 0.0000 0.0000 1799.5864 -7606.9502 303.3305 -9406.5366 -7606.9502 303.3305 166.1168 256.3632 30303.3124 166.1168 256.3632
ENERGY: 300000 0.2549 3.4559 0.3921 0.0000 -10872.7104 1491.4246 0.0000 0.0000 1762.6309 -7614.5520 297.1014 -9377.1829 -7601.1823 300.7772 15.4657 106.5740 30855.9817 -39.8340 51.1909
ENERGY: 600000 0.4524 4.4085 0.1973 0.0000 -10722.0353 1434.2363 0.0000 0.0000 1765.3703 -7517.3706 297.5631 -9282.7409 -7582.4242 298.9233 -206.2245 -89.2919 31055.3759 36.6460 131.9429
ENERGY: 900000 0.6497 3.1008 1.7710 0.0000 -10978.9984 1575.3821 0.0000 0.0000 1834.3640 -7563.7307 309.1924 -9398.0948 -7568.1379 301.5197 962.2252 1014.8051 30699.3108 103.7072 190.8605
ENERGY: 1200000 0.8262 1.5903 0.4849 0.0000 -10899.1370 1511.3912 0.0000 0.0000 1825.3243 -7559.5200 307.6687 -9384.8444 -7574.2624 301.3949 387.8376 425.5901 30517.9187 51.3690 133.7951
ENERGY: 1500000 0.5619 5.0610 0.3852 0.0000 -10746.7520 1432.1836 0.0000 0.0000 1826.4633 -7482.0971 307.8607 -9308.5604 -7569.6605 301.0864 -182.6539 -103.6505 30991.5623 54.2725 136.2429
TCL: Running FEP window  18: Lambda1 0.8500000000000002 Lambda2 0.9000000000000002 [dLambda 0.050000000000000044]
TCL: Setting parameter firsttimestep to 0
TCL: Setting parameter alchLambda to 0.8500000000000002
Info: NONBONDED TABLE R-SQUARED SPACING: 0.0625
Info: NONBONDED TABLE SIZE: 705 POINTS
TCL: Setting parameter alchLambda2 to 0.9000000000000002
Info: NONBONDED TABLE R-SQUARED SPACING: 0.0625
Info: NONBONDED TABLE SIZE: 705 POINTS
TCL: Running for 1500000 steps
ETITLE: TS BOND ANGLE DIHED IMPRP ELECT VDW BOUNDARY MISC KINETIC TOTAL TEMP POTENTIAL TOTALAVG TEMPAVG PRESSURE GPRESSURE VOLUME PRESSAVG GPRESSAVG
ENERGY: 0 0.5619 5.0610 0.3852 0.0000 -10746.7352 1433.2848 0.0000 0.0000 1825.5711 -7481.8712 307.7103 -9307.4424 -7481.8712 307.7103 -169.2905 -81.9959 30991.5623 -169.2905 -81.9959
ENERGY: 300000 1.1289 6.4101 1.4175 0.0000 -10781.8848 1423.0806 0.0000 0.0000 1819.9669 -7529.8808 306.7657 -9349.8478 -7591.6271 302.7912 -267.8539 -230.6980 30952.4384 -91.0325 -38.6622
ENERGY: 600000 0.4047 4.7036 2.5158 0.0000 -10839.2603 1451.4278 0.0000 0.0000 1801.2974 -7578.9110 303.6189 -9380.2084 -7596.1199 301.7805 -87.2769 -31.4477 30823.2957 93.4724 159.0593
ENERGY: 900000 1.9695 5.4775 0.3290 0.0000 -10736.6389 1392.0255 0.0000 0.0000 1763.2286 -7573.6088 297.2021 -9336.8374 -7575.9151 301.7401 -235.4848 -189.1520 30713.3866 21.3527 75.2430
ENERGY: 1200000 0.7081 5.9120 1.0232 0.0000 -10840.1043 1414.8381 0.0000 0.0000 1758.1283 -7659.4945 296.3425 -9417.6228 -7579.7302 300.6172 -419.2753 -377.8686 30760.5770 -26.7792 26.5467
ENERGY: 1500000 0.0265 4.1491 0.4835 0.0000 -10867.1143 1449.5271 0.0000 0.0000 1769.7522 -7643.1759 298.3017 -9412.9281 -7585.0136 301.3959 -267.9784 -243.7939 30836.4308 10.0688 65.0667
TCL: Running FEP window  19: Lambda1 0.9000000000000002 Lambda2 0.9500000000000003 [dLambda 0.050000000000000044]
TCL: Setting parameter firsttimestep to 0
TCL: Setting parameter alchLambda to 0.9000000000000002
Info: NONBONDED TABLE R-SQUARED SPACING: 0.0625
Info: NONBONDED TABLE SIZE: 705 POINTS
TCL: Setting parameter alchLambda2 to 0.9500000000000003
Info: NONBONDED TABLE R-SQUARED SPACING: 0.0625
Info: NONBONDED TABLE SIZE: 705 POINTS
TCL: Running for 1500000 steps
ETITLE: TS BOND ANGLE DIHED IMPRP ELECT VDW BOUNDARY MISC KINETIC TOTAL TEMP POTENTIAL TOTALAVG TEMPAVG PRESSURE GPRESSURE VOLUME PRESSAVG GPRESSAVG
ENERGY: 0 0.0265 4.1491 0.4835 0.0000 -10867.1199 1449.7382 0.0000 0.0000 1768.8507 -7643.8719 298.1498 -9412.7226 -7643.8719 298.1498 -302.6914 -233.6243 30836.4308 -302.6914 -233.6243
ENERGY: 300000 0.2402 3.1000 0.1635 0.0000 -10780.8700 1394.2593 0.0000 0.0000 1755.2242 -7627.8829 295.8530 -9383.1071 -7581.7360 303.0720 -497.1756 -438.0273 30707.4725 -131.1113 -49.6412
ENERGY: 600000 1.0254 5.9925 0.0845 0.0000 -10935.2999 1474.3201 0.0000 0.0000 1733.5937 -7720.2837 292.2070 -9453.8774 -7591.4660 301.7630 88.5120 147.4715 30303.6237 -277.1998 -210.8442
ENERGY: 900000 0.0249 4.4722 0.8939 0.0000 -10759.9702 1458.9746 0.0000 0.0000 1799.6847 -7495.9199 303.3470 -9295.6046 -7578.4090 302.1076 273.6859 318.3257 30679.8751 -147.8582 -90.4073
ENERGY: 1200000 0.2745 3.1124 0.3591 0.0000 -10849.3495 1434.1397 0.0000 0.0000 1833.4088 -7578.0550 309.0314 -9411.4638 -7576.0837 302.4171 -44.1952 10.2239 30154.9215 -76.8700 -19.0393
ENERGY: 1500000 0.0776 5.8151 2.0447 0.0000 -10905.9459 1477.0907 0.0000 0.0000 1816.2000 -7604.7177 306.1308 -9420.9177 -7580.1402 302.2171 -55.4907 -47.7720 30532.5157 -66.0296 -10.0498
TCL: Running FEP window  20: Lambda1 0.9500000000000003 Lambda2 1.0    [dLambda 0.04999999999999971]
TCL: Setting parameter firsttimestep to 0
TCL: Setting parameter alchLambda to 0.9500000000000003
Info: NONBONDED TABLE R-SQUARED SPACING: 0.0625
Info: NONBONDED TABLE SIZE: 705 POINTS
TCL: Setting parameter alchLambda2 to 1.0
Info: NONBONDED TABLE R-SQUARED SPACING: 0.0625
Info: NONBONDED TABLE SIZE: 705 POINTS
TCL: Running for 1500000 steps
ETITLE: TS BOND ANGLE DIHED IMPRP ELECT VDW BOUNDARY MISC KINETIC TOTAL TEMP POTENTIAL TOTALAVG TEMPAVG PRESSURE GPRESSURE VOLUME PRESSAVG GPRESSAVG
ENERGY: 0 0.0776 5.8151 2.0447 0.0000 -10905.9746 1476.9482 0.0000 0.0000 1815.2848 -7605.8042 305.9765 -9421.0890 -7605.8042 305.9765 -124.5763 -39.0080 30532.5157 -124.5763 -39.0080
ENERGY: 300000 0.0653 5.7287 0.3620 0.0000 -10761.2679 1412.3334 0.0000 0.0000 1765.6231 -7577.1554 297.6057 -9342.7785 -7555.3524 300.7788 -386.7844 -322.3645 31142.5561 -242.3464 -173.9201
ENERGY: 600000 0.6977 3.6152 1.7557 0.0000 -10751.3177 1408.6975 0.0000 0.0000 1819.9908 -7516.5607 306.7697 -9336.5515 -7557.6326 303.1513 -543.5071 -470.4087 31086.3510 -165.6378 -96.9472
ENERGY: 900000 0.7328 5.8672 1.1477 0.0000 -10924.3843 1572.1412 0.0000 0.0000 1769.1271 -7575.3683 298.1964 -9344.4954 -7561.9738 302.5322 995.5055 1000.9711 30713.3335 86.0675 148.4728
ENERGY: 1200000 0.5389 6.7644 0.6924 0.0000 -10891.6702 1522.1257 0.0000 0.0000 1772.0822 -7589.4666 298.6945 -9361.5488 -7578.1490 300.3103 410.5715 450.5969 30643.2293 82.0539 139.6538
ENERGY: 1500000 0.7869 6.2331 0.8336 0.0000 -10804.2396 1440.0680 0.0000 0.0000 1791.1550 -7565.1630 301.9093 -9356.3180 -7583.5909 300.0558 -0.9317 112.9344 30380.1247 58.8324 116.5018
TCL: Exiting due to exit command.
