Info: SIMULATION PARAMETERS:
Info: TIMESTEP               2
Info: NUMBER OF STEPS        0
Info: STEPS PER CYCLE        10
Info: PERIODIC CELL BASIS 1  35.01 0 0
Info: PERIODIC CELL BASIS 2  0 35.411 0
Info: PERIODIC CELL BASIS 3  0 0 35.723
Info: PERIODIC CELL CENTER   0 0 0
Info: WRAPPING WATERS AROUND PERIODIC BOUNDARIES ON OUTPUT.
Info: WRAPPING ALL CLUSTERS AROUND PERIODIC BOUNDARIES ON OUTPUT.
Info: FIRST LDB TIMESTEP     50
Info: LAST LDB TIMESTEP     -1
Info: HOM BACKGROUND SCALING 1
Info: PME BACKGROUND SCALING 1
Info: MIN ATOMS PER PATCH    40
Info: EMPTY PATCH LOAD       40 ATOMS
Info: INITIAL TEMPERATURE    300
Info: CENTER OF MASS MOVING INITIALLY? NO
Info: DIELECTRIC             1
Info: EXCLUDE                SCALED ONE-FOUR
Info: 1-4 ELECTROSTATICS SCALED BY 0.833333
Info: MODIFIED 1-4 VDW PARAMETERS WILL BE USED
Info: DCD FILENAME           mobley_1723043_equil.dcd
Info: DCD FREQUENCY          100000
Info: DCD FIRST STEP         100000
Info: DCD FILE WILL CONTAIN UNIT CELL DATA
Info: XST FILENAME           mobley_1723043_equil.xst
Info: XST FREQUENCY          100000
Info: NO VELOCITY DCD OUTPUT
Info: NO FORCE DCD OUTPUT
Info: OUTPUT FILENAME        mobley_1723043_equil
Info: BINARY OUTPUT FILES WILL BE USED
Info: RESTART FILENAME       mobley_1723043_equil.restart
Info: RESTART FREQUENCY      100000
Info: BINARY RESTART FILES WILL BE USED
Info: CUTOFF                 9
Info: PAIRLIST DISTANCE      11
Info: PAIRLIST SHRINK RATE   0.01
Info: PAIRLIST GROW RATE     0.01
Info: PAIRLIST TRIGGER       0.3
Info: PAIRLISTS PER CYCLE    2
Info: PAIRLISTS ENABLED
Info: MARGIN                 8
Info: HYDROGEN GROUP CUTOFF  2.5
Info: PATCH DIMENSION        21.5
Info: ENERGY OUTPUT STEPS    100000
Info: ENERGY EVALUATION STEPS    100000
Info: OUTPUT ENERGY PRECISION 4
Info: CROSSTERM ENERGY INCLUDED IN DIHEDRAL
Info: TIMING OUTPUT STEPS    1000000
Info: PRESSURE OUTPUT STEPS  100000
Info: LANGEVIN DYNAMICS ACTIVE
Info: LANGEVIN TEMPERATURE   30
Info: LANGEVIN USING BBK INTEGRATOR
Info: LANGEVIN DAMPING COEFFICIENT IS 1 INVERSE PS
Info: LANGEVIN DYNAMICS APPLIED TO HYDROGENS
Info: LANGEVIN PISTON PRESSURE CONTROL ACTIVE
Info:        TARGET PRESSURE IS 1.01325 BAR
Info:     OSCILLATION PERIOD IS 50 FS
Info:             DECAY TIME IS 25 FS
Info:     PISTON TEMPERATURE IS 300 K
Info:       PRESSURE CONTROL IS GROUP-BASED
Info:    INITIAL STRAIN RATE IS 0 0 0
Info:       CELL FLUCTUATION IS ISOTROPIC
Info: PARTICLE MESH EWALD (PME) ACTIVE
Info: PME TOLERANCE               1e-06
Info: PME EWALD COEFFICIENT       0.348832
Info: PME INTERPOLATION ORDER     4
Info: PME GRID DIMENSIONS         36 36 36
Info: PME MAXIMUM GRID SPACING    1
Info: FULL ELECTROSTATIC EVALUATION FREQUENCY      2
Info: USING VERLET I (r-RESPA) MTS SCHEME.
Info: C1 SPLITTING OF LONG RANGE ELECTROSTATICS
Info: PLACING ATOMS IN PATCHES BY HYDROGEN GROUPS
Info: RIGID BONDS TO HYDROGEN : ALL
Info:         ERROR TOLERANCE : 1e-08
Info:          MAX ITERATIONS : 100
Info: RIGID WATER USING SETTLE ALGORITHM
Info: RANDOM NUMBER SEED     1742719727
Info: USE HYDROGEN BONDS?    NO
Info: Using AMBER format force field!
Info: AMBER PARM FILE        mobley_1723043.prmtop
Info: COORDINATE PDB         mobley_1723043.pdb
Info: Exclusions will be read from PARM file!
Info: SCNB (VDW SCALING)     2
Info: USING ARITHMETIC MEAN TO COMBINE L-J SIGMA PARAMETERS
Info: BINARY COORDINATES     mobley_1723043_min.coor
Info: SUMMARY OF PARAMETERS:
Info: 4 BONDS
Info: 3 ANGLES
Info:   3 HARMONIC
Info:   0 COSINE-BASED
Info: 1 DIHEDRAL
Info: 0 IMPROPER
Info: 0 CROSSTERM
Info: 0 VDW
Info: 10 VDW_PAIRS
Info: 0 NBTHOLE_PAIRS
Info: STRUCTURE SUMMARY:
Info: 2964 ATOMS
Info: 2964 BONDS
Info: 24 ANGLES
Info: 36 DIHEDRALS
Info: 0 IMPROPERS
Info: 0 CROSSTERMS
Info: 3010 EXCLUSIONS
Info: 2952 RIGID BONDS
Info: 5940 DEGREES OF FREEDOM
Info: 996 HYDROGEN GROUPS
Info: 3 ATOMS IN LARGEST HYDROGEN GROUP
Info: 996 MIGRATION GROUPS
Info: 3 ATOMS IN LARGEST MIGRATION GROUP
Info: TOTAL MASS = 17927.8 amu
Info: TOTAL CHARGE = 0 e
Info: MASS DENSITY = 0.672214 g/cm^3
Info: ATOM DENSITY = 0.0669268 atoms/A^3
Info: ADDED 0 IMPLICIT EXCLUSIONS
Info: NONBONDED TABLE R-SQUARED SPACING: 0.0625
Info: NONBONDED TABLE SIZE: 705 POINTS
Info: REMOVING COM VELOCITY 0.278071 -0.276179 -0.0879333
TCL: Running for 100000 steps
ETITLE: TS BOND ANGLE DIHED IMPRP ELECT VDW BOUNDARY MISC KINETIC TOTAL TEMP POTENTIAL TOTAL3 TEMPAVG PRESSURE GPRESSURE VOLUME PRESSAVG GPRESSAVG
ENERGY: 0 0.2991 0.9604 5.7175 0.0000 -13723.5324 2442.2586 0.0000 0.0000 1772.4181 -9501.8787 300.3102 -11274.2968 -9501.5290 300.3102 507.1797 539.8708 44287.2002 507.1797 539.8708
ENERGY: 100000 0.3559 0.7614 5.8270 0.0000 -14461.6682 2630.0364 0.0000 0.0000 178.9210 -11645.7665 30.3155 -11824.6875 -11645.5266 30.9108 1309.9923 1394.3078 28237.3043 4.1558 4.1538
TCL: Running 100000 steps at 60 kelvin.
TCL: Setting parameter langevinTemp to 60
TCL: Running for 100000 steps
ETITLE: TS BOND ANGLE DIHED IMPRP ELECT VDW BOUNDARY MISC KINETIC TOTAL TEMP POTENTIAL TOTAL3 TEMPAVG PRESSURE GPRESSURE VOLUME PRESSAVG GPRESSAVG
ENERGY: 100000 0.3559 0.7614 5.8270 0.0000 -14461.6682 2630.0364 0.0000 0.0000 178.8302 -11645.8573 30.3001 -11824.6875 -11645.5454 30.3001 1329.4297 1393.9778 28237.3043 1329.4297 1393.9778
ENERGY: 200000 1.5205 2.7113 5.7569 0.0000 -14038.4119 2322.3281 0.0000 0.0000 342.5665 -11363.5286 58.0429 -11706.0950 -11362.5418 59.9796 -1080.7832 -1040.6241 29024.1768 2.7084 2.6587
TCL: Running 100000 steps at 90 kelvin.
TCL: Setting parameter langevinTemp to 90
TCL: Running for 100000 steps
ETITLE: TS BOND ANGLE DIHED IMPRP ELECT VDW BOUNDARY MISC KINETIC TOTAL TEMP POTENTIAL TOTAL3 TEMPAVG PRESSURE GPRESSURE VOLUME PRESSAVG GPRESSAVG
ENERGY: 200000 1.5205 2.7113 5.7569 0.0000 -14038.4119 2322.3281 0.0000 0.0000 342.3917 -11363.7033 58.0133 -11706.0950 -11362.9327 58.0133 -1093.1911 -1040.6011 29024.1768 -1093.1911 -1040.6011
ENERGY: 300000 1.3349 3.2202 6.0075 0.0000 -13989.9862 2362.6884 0.0000 0.0000 548.8085 -11067.9267 92.9875 -11616.7352 -11066.5013 89.9178 -392.5966 -325.8264 28880.3341 4.0198 4.0861
TCL: Running 100000 steps at 120 kelvin.
TCL: Setting parameter langevinTemp to 120
TCL: Running for 100000 steps
ETITLE: TS BOND ANGLE DIHED IMPRP ELECT VDW BOUNDARY MISC KINETIC TOTAL TEMP POTENTIAL TOTAL3 TEMPAVG PRESSURE GPRESSURE VOLUME PRESSAVG GPRESSAVG
ENERGY: 300000 1.3349 3.2202 6.0075 0.0000 -13989.9862 2362.6884 0.0000 0.0000 548.5540 -11068.1812 92.9444 -11616.7352 -11066.8798 92.9444 -381.3801 -326.0570 28880.3341 -381.3801 -326.0570
ENERGY: 400000 1.3632 1.5239 6.1249 0.0000 -13638.7589 2181.4062 0.0000 0.0000 714.5784 -10733.7623 121.0748 -11448.3407 -10732.7624 120.0122 -1412.5020 -1346.6878 29176.8602 3.9353 3.9003
TCL: Running 100000 steps at 150 kelvin.
TCL: Setting parameter langevinTemp to 150
TCL: Running for 100000 steps
ETITLE: TS BOND ANGLE DIHED IMPRP ELECT VDW BOUNDARY MISC KINETIC TOTAL TEMP POTENTIAL TOTAL3 TEMPAVG PRESSURE GPRESSURE VOLUME PRESSAVG GPRESSAVG
ENERGY: 400000 1.3632 1.5239 6.1249 0.0000 -13638.7589 2181.4062 0.0000 0.0000 714.2189 -10734.1218 121.0139 -11448.3407 -10732.6424 121.0139 -1416.2011 -1346.9349 29176.8602 -1416.2011 -1346.9349
ENERGY: 500000 2.3311 3.0678 5.4061 0.0000 -13506.7328 2169.2497 0.0000 0.0000 915.7626 -10410.9155 155.1625 -11326.6781 -10409.1570 149.8003 -920.4094 -875.1124 29136.9036 5.6722 5.5604
TCL: Running 100000 steps at 180 kelvin.
TCL: Setting parameter langevinTemp to 180
TCL: Running for 100000 steps
ETITLE: TS BOND ANGLE DIHED IMPRP ELECT VDW BOUNDARY MISC KINETIC TOTAL TEMP POTENTIAL TOTAL3 TEMPAVG PRESSURE GPRESSURE VOLUME PRESSAVG GPRESSAVG
ENERGY: 500000 2.3311 3.0678 5.4061 0.0000 -13506.7328 2169.2497 0.0000 0.0000 915.3249 -10411.3532 155.0884 -11326.6781 -10409.1808 155.0884 -923.8023 -875.5100 29136.9036 -923.8023 -875.5100
ENERGY: 600000 1.8141 3.2927 6.0281 0.0000 -13225.4136 2163.5964 0.0000 0.0000 1055.2089 -9995.4734 178.7896 -11050.6822 -9993.3954 179.9380 -98.3812 -66.6315 29316.1721 3.3506 3.3544
TCL: Running 100000 steps at 210 kelvin.
TCL: Setting parameter langevinTemp to 210
TCL: Running for 100000 steps
ETITLE: TS BOND ANGLE DIHED IMPRP ELECT VDW BOUNDARY MISC KINETIC TOTAL TEMP POTENTIAL TOTAL3 TEMPAVG PRESSURE GPRESSURE VOLUME PRESSAVG GPRESSAVG
ENERGY: 600000 1.8141 3.2927 6.0281 0.0000 -13225.4136 2163.5964 0.0000 0.0000 1054.6805 -9996.0018 178.7001 -11050.6822 -9993.8264 178.7001 -131.0113 -67.5924 29316.1721 -131.0113 -67.5924
ENERGY: 700000 1.1326 3.5567 7.1855 0.0000 -12554.6823 1990.2637 0.0000 0.0000 1279.8318 -9272.7120 216.8487 -10552.5438 -9269.2512 210.0388 664.4590 773.2000 28920.1644 3.6641 3.6174
TCL: Running 100000 steps at 240 kelvin.
TCL: Setting parameter langevinTemp to 240
TCL: Running for 100000 steps
ETITLE: TS BOND ANGLE DIHED IMPRP ELECT VDW BOUNDARY MISC KINETIC TOTAL TEMP POTENTIAL TOTAL3 TEMPAVG PRESSURE GPRESSURE VOLUME PRESSAVG GPRESSAVG
ENERGY: 700000 1.1326 3.5567 7.1855 0.0000 -12554.6823 1990.2637 0.0000 0.0000 1279.2009 -9273.3430 216.7418 -10552.5438 -9271.4571 216.7418 687.7874 774.5501 28920.1644 687.7874 774.5501
ENERGY: 800000 1.8225 4.4952 5.5099 0.0000 -11867.3592 1758.2607 0.0000 0.0000 1437.3190 -8659.9519 243.5326 -10097.2709 -8656.4074 240.5541 560.4812 687.2462 28949.9724 3.0430 2.8608
TCL: Running 100000 steps at 270 kelvin.
TCL: Setting parameter langevinTemp to 270
TCL: Running for 100000 steps
ETITLE: TS BOND ANGLE DIHED IMPRP ELECT VDW BOUNDARY MISC KINETIC TOTAL TEMP POTENTIAL TOTAL3 TEMPAVG PRESSURE GPRESSURE VOLUME PRESSAVG GPRESSAVG
ENERGY: 800000 1.8225 4.4952 5.5099 0.0000 -11867.3592 1758.2607 0.0000 0.0000 1436.5971 -8660.6738 243.4103 -10097.2709 -8658.8319 243.4103 595.3384 690.7468 28949.9724 595.3384 690.7468
ENERGY: 900000 3.4012 5.7335 6.2084 0.0000 -11231.1617 1580.8150 0.0000 0.0000 1594.1791 -8040.8246 270.1102 -9635.0036 -8038.3537 270.3090 237.0126 378.7441 29780.4614 4.5058 4.2969
TCL: Running 1000000 steps at 300 kelvin.
TCL: Setting parameter langevinTemp to 300
TCL: Running for 1000000 steps
ETITLE: TS BOND ANGLE DIHED IMPRP ELECT VDW BOUNDARY MISC KINETIC TOTAL TEMP POTENTIAL TOTAL3 TEMPAVG PRESSURE GPRESSURE VOLUME PRESSAVG GPRESSAVG
ENERGY: 900000 3.4012 5.7335 6.2084 0.0000 -11231.1617 1580.8150 0.0000 0.0000 1593.3822 -8041.6215 269.9752 -9635.0036 -8039.0669 269.9752 296.6882 381.3319 29780.4614 296.6882 381.3319
ENERGY: 1100000 3.5752 6.4112 5.9875 0.0000 -10787.0413 1471.6981 0.0000 0.0000 1745.2238 -7554.1454 295.7026 -9299.3692 -7548.8027 300.6012 -151.6684 -52.0903 30744.7845 3.9590 3.9185
ENERGY: 1300000 2.6003 5.3724 5.2725 0.0000 -10655.8298 1459.5844 0.0000 0.0000 1756.2019 -7426.7983 297.5626 -9183.0003 -7423.7975 299.9435 407.6658 492.4872 30730.9860 2.0697 2.1870
ENERGY: 1500000 4.2625 7.8060 5.8135 0.0000 -10802.8511 1549.9182 0.0000 0.0000 1765.5591 -7469.4918 299.1481 -9235.0509 -7464.6759 299.9403 960.0923 1032.7724 30681.7693 2.8977 2.8287
ENERGY: 1700000 3.4895 4.5037 4.6939 0.0000 -10596.7480 1388.6389 0.0000 0.0000 1713.3195 -7482.1027 290.2968 -9195.4222 -7477.9549 299.3653 -522.5743 -498.6129 31201.6125 4.2297 4.1936
ENERGY: 1900000 2.7380 4.4692 6.0633 0.0000 -10914.1305 1484.2713 0.0000 0.0000 1746.0755 -7670.5132 295.8468 -9416.5887 -7668.3378 300.6498 -168.4849 -34.8436 30432.5797 2.0670 2.2021
TCL: Exiting due to exit command.
