Info: SIMULATION PARAMETERS:
Info: TIMESTEP               2
Info: NUMBER OF STEPS        0
Info: STEPS PER CYCLE        10
Info: PERIODIC CELL BASIS 1  34.207 0 0
Info: PERIODIC CELL BASIS 2  0 35.847 0
Info: PERIODIC CELL BASIS 3  0 0 36.199
Info: PERIODIC CELL CENTER   0 0 0
Info: WRAPPING WATERS AROUND PERIODIC BOUNDARIES ON OUTPUT.
Info: WRAPPING ALL CLUSTERS AROUND PERIODIC BOUNDARIES ON OUTPUT.
Info: FIRST LDB TIMESTEP     50
Info: LAST LDB TIMESTEP     -1
Info: HOM BACKGROUND SCALING 1
Info: PME BACKGROUND SCALING 1
Info: MIN ATOMS PER PATCH    40
Info: EMPTY PATCH LOAD       40 ATOMS
Info: INITIAL TEMPERATURE    300
Info: CENTER OF MASS MOVING INITIALLY? NO
Info: DIELECTRIC             1
Info: EXCLUDE                SCALED ONE-FOUR
Info: 1-4 ELECTROSTATICS SCALED BY 0.833333
Info: MODIFIED 1-4 VDW PARAMETERS WILL BE USED
Info: DCD FILENAME           mobley_6239320_equil.dcd
Info: DCD FREQUENCY          100000
Info: DCD FIRST STEP         100000
Info: DCD FILE WILL CONTAIN UNIT CELL DATA
Info: XST FILENAME           mobley_6239320_equil.xst
Info: XST FREQUENCY          100000
Info: NO VELOCITY DCD OUTPUT
Info: NO FORCE DCD OUTPUT
Info: OUTPUT FILENAME        mobley_6239320_equil
Info: BINARY OUTPUT FILES WILL BE USED
Info: RESTART FILENAME       mobley_6239320_equil.restart
Info: RESTART FREQUENCY      100000
Info: BINARY RESTART FILES WILL BE USED
Info: CUTOFF                 9
Info: PAIRLIST DISTANCE      11
Info: PAIRLIST SHRINK RATE   0.01
Info: PAIRLIST GROW RATE     0.01
Info: PAIRLIST TRIGGER       0.3
Info: PAIRLISTS PER CYCLE    2
Info: PAIRLISTS ENABLED
Info: MARGIN                 8
Info: HYDROGEN GROUP CUTOFF  2.5
Info: PATCH DIMENSION        21.5
Info: ENERGY OUTPUT STEPS    100000
Info: ENERGY EVALUATION STEPS    100000
Info: OUTPUT ENERGY PRECISION 4
Info: CROSSTERM ENERGY INCLUDED IN DIHEDRAL
Info: TIMING OUTPUT STEPS    1000000
Info: PRESSURE OUTPUT STEPS  100000
Info: LANGEVIN DYNAMICS ACTIVE
Info: LANGEVIN TEMPERATURE   30
Info: LANGEVIN USING BBK INTEGRATOR
Info: LANGEVIN DAMPING COEFFICIENT IS 1 INVERSE PS
Info: LANGEVIN DYNAMICS APPLIED TO HYDROGENS
Info: LANGEVIN PISTON PRESSURE CONTROL ACTIVE
Info:        TARGET PRESSURE IS 1.01325 BAR
Info:     OSCILLATION PERIOD IS 50 FS
Info:             DECAY TIME IS 25 FS
Info:     PISTON TEMPERATURE IS 300 K
Info:       PRESSURE CONTROL IS GROUP-BASED
Info:    INITIAL STRAIN RATE IS 0 0 0
Info:       CELL FLUCTUATION IS ISOTROPIC
Info: PARTICLE MESH EWALD (PME) ACTIVE
Info: PME TOLERANCE               1e-06
Info: PME EWALD COEFFICIENT       0.348832
Info: PME INTERPOLATION ORDER     4
Info: PME GRID DIMENSIONS         36 36 40
Info: PME MAXIMUM GRID SPACING    1
Info: FULL ELECTROSTATIC EVALUATION FREQUENCY      2
Info: USING VERLET I (r-RESPA) MTS SCHEME.
Info: C1 SPLITTING OF LONG RANGE ELECTROSTATICS
Info: PLACING ATOMS IN PATCHES BY HYDROGEN GROUPS
Info: RIGID BONDS TO HYDROGEN : ALL
Info:         ERROR TOLERANCE : 1e-08
Info:          MAX ITERATIONS : 100
Info: RIGID WATER USING SETTLE ALGORITHM
Info: RANDOM NUMBER SEED     1742719723
Info: USE HYDROGEN BONDS?    NO
Info: Using AMBER format force field!
Info: AMBER PARM FILE        mobley_6239320.prmtop
Info: COORDINATE PDB         mobley_6239320.pdb
Info: Exclusions will be read from PARM file!
Info: SCNB (VDW SCALING)     2
Info: USING ARITHMETIC MEAN TO COMBINE L-J SIGMA PARAMETERS
Info: BINARY COORDINATES     mobley_6239320_min.coor
Info: SUMMARY OF PARAMETERS:
Info: 5 BONDS
Info: 4 ANGLES
Info:   4 HARMONIC
Info:   0 COSINE-BASED
Info: 4 DIHEDRAL
Info: 0 IMPROPER
Info: 0 CROSSTERM
Info: 0 VDW
Info: 21 VDW_PAIRS
Info: 0 NBTHOLE_PAIRS
Info: STRUCTURE SUMMARY:
Info: 2988 ATOMS
Info: 2988 BONDS
Info: 18 ANGLES
Info: 36 DIHEDRALS
Info: 0 IMPROPERS
Info: 0 CROSSTERMS
Info: 3027 EXCLUSIONS
Info: 2979 RIGID BONDS
Info: 5985 DEGREES OF FREEDOM
Info: 1001 HYDROGEN GROUPS
Info: 3 ATOMS IN LARGEST HYDROGEN GROUP
Info: 1001 MIGRATION GROUPS
Info: 3 ATOMS IN LARGEST MIGRATION GROUP
Info: TOTAL MASS = 18001 amu
Info: TOTAL CHARGE = 0.000199944 e
Info: MASS DENSITY = 0.673427 g/cm^3
Info: ATOM DENSITY = 0.0673157 atoms/A^3
Info: ADDED 0 IMPLICIT EXCLUSIONS
Info: NONBONDED TABLE R-SQUARED SPACING: 0.0625
Info: NONBONDED TABLE SIZE: 705 POINTS
Info: REMOVING COM VELOCITY -0.123477 -0.0124751 0.0158219
TCL: Running for 100000 steps
ETITLE: TS BOND ANGLE DIHED IMPRP ELECT VDW BOUNDARY MISC KINETIC TOTAL TEMP POTENTIAL TOTAL3 TEMPAVG PRESSURE GPRESSURE VOLUME PRESSAVG GPRESSAVG
ENERGY: 0 2.6655 0.2277 24.3498 0.0000 -14340.0526 2486.5641 0.0000 0.0000 1739.3208 -10086.9247 292.4866 -11826.2455 -10086.5873 292.4866 666.8500 702.7929 44387.8773 666.8500 702.7929
ENERGY: 100000 3.1714 0.5126 24.3096 0.0000 -14882.5997 2554.9453 0.0000 0.0000 184.1157 -12115.5451 30.9611 -12299.6608 -12115.0509 30.9299 373.4395 440.4042 29015.0526 3.8852 3.8180
TCL: Running 100000 steps at 60 kelvin.
TCL: Setting parameter langevinTemp to 60
TCL: Running for 100000 steps
ETITLE: TS BOND ANGLE DIHED IMPRP ELECT VDW BOUNDARY MISC KINETIC TOTAL TEMP POTENTIAL TOTAL3 TEMPAVG PRESSURE GPRESSURE VOLUME PRESSAVG GPRESSAVG
ENERGY: 100000 3.1714 0.5126 24.3096 0.0000 -14882.5997 2554.9453 0.0000 0.0000 184.0267 -12115.6341 30.9462 -12299.6608 -12115.1354 30.9462 375.6405 440.3011 29015.0526 375.6405 440.3011
ENERGY: 200000 4.2189 0.6024 24.7473 0.0000 -14777.1878 2505.4507 0.0000 0.0000 345.3498 -11896.8187 58.0745 -12242.1684 -11895.3940 59.8467 289.2189 358.4499 28974.4204 2.5537 2.4776
TCL: Running 100000 steps at 90 kelvin.
TCL: Setting parameter langevinTemp to 90
TCL: Running for 100000 steps
ETITLE: TS BOND ANGLE DIHED IMPRP ELECT VDW BOUNDARY MISC KINETIC TOTAL TEMP POTENTIAL TOTAL3 TEMPAVG PRESSURE GPRESSURE VOLUME PRESSAVG GPRESSAVG
ENERGY: 200000 4.2189 0.6024 24.7473 0.0000 -14777.1878 2505.4507 0.0000 0.0000 345.1713 -11896.9972 58.0445 -12242.1684 -11896.3697 58.0445 298.9273 359.0720 28974.4204 298.9273 359.0720
ENERGY: 300000 6.9043 0.9218 24.9672 0.0000 -14738.4113 2564.9456 0.0000 0.0000 531.6958 -11608.9766 89.4107 -12140.6724 -11607.8497 89.6489 1257.6997 1302.2016 28781.6368 3.2299 3.1932
TCL: Running 100000 steps at 120 kelvin.
TCL: Setting parameter langevinTemp to 120
TCL: Running for 100000 steps
ETITLE: TS BOND ANGLE DIHED IMPRP ELECT VDW BOUNDARY MISC KINETIC TOTAL TEMP POTENTIAL TOTAL3 TEMPAVG PRESSURE GPRESSURE VOLUME PRESSAVG GPRESSAVG
ENERGY: 300000 6.9043 0.9218 24.9672 0.0000 -14738.4113 2564.9456 0.0000 0.0000 531.4307 -11609.2418 89.3661 -12140.6724 -11608.4398 89.3661 1247.6062 1302.3539 28781.6368 1247.6062 1302.3539
ENERGY: 400000 5.2592 1.1320 26.7719 0.0000 -14266.9458 2241.4046 0.0000 0.0000 687.7107 -11304.6673 115.6464 -11992.3780 -11302.3146 119.7178 -1064.7458 -1033.9980 29340.2430 3.0816 3.0960
TCL: Running 100000 steps at 150 kelvin.
TCL: Setting parameter langevinTemp to 150
TCL: Running for 100000 steps
ETITLE: TS BOND ANGLE DIHED IMPRP ELECT VDW BOUNDARY MISC KINETIC TOTAL TEMP POTENTIAL TOTAL3 TEMPAVG PRESSURE GPRESSURE VOLUME PRESSAVG GPRESSAVG
ENERGY: 400000 5.2592 1.1320 26.7719 0.0000 -14266.9458 2241.4046 0.0000 0.0000 687.3500 -11305.0280 115.5857 -11992.3780 -11303.5580 115.5857 -1083.8401 -1033.8119 29340.2430 -1083.8401 -1033.8119
ENERGY: 500000 2.2615 1.8337 26.0159 0.0000 -14029.5194 2185.1818 0.0000 0.0000 889.9777 -10924.2488 149.6599 -11814.2266 -10922.5986 149.7455 -1001.1582 -969.8651 29438.1195 4.3115 4.1521
TCL: Running 100000 steps at 180 kelvin.
TCL: Setting parameter langevinTemp to 180
TCL: Running for 100000 steps
ETITLE: TS BOND ANGLE DIHED IMPRP ELECT VDW BOUNDARY MISC KINETIC TOTAL TEMP POTENTIAL TOTAL3 TEMPAVG PRESSURE GPRESSURE VOLUME PRESSAVG GPRESSAVG
ENERGY: 500000 2.2615 1.8337 26.0159 0.0000 -14029.5194 2185.1818 0.0000 0.0000 889.5636 -10924.6629 149.5902 -11814.2265 -10922.6639 149.5902 -1012.2538 -970.2715 29438.1195 -1012.2538 -970.2715
ENERGY: 600000 6.3725 1.3909 25.8036 0.0000 -13723.8870 2158.7001 0.0000 0.0000 1078.4452 -10453.1747 181.3528 -11531.6199 -10450.0245 179.9327 150.3983 187.6830 29251.3162 2.9798 2.9907
TCL: Running 100000 steps at 210 kelvin.
TCL: Setting parameter langevinTemp to 210
TCL: Running for 100000 steps
ETITLE: TS BOND ANGLE DIHED IMPRP ELECT VDW BOUNDARY MISC KINETIC TOTAL TEMP POTENTIAL TOTAL3 TEMPAVG PRESSURE GPRESSURE VOLUME PRESSAVG GPRESSAVG
ENERGY: 600000 6.3725 1.3909 25.8036 0.0000 -13723.8870 2158.7001 0.0000 0.0000 1077.9080 -10453.7119 181.2625 -11531.6199 -10451.4240 181.2625 135.1418 187.3323 29251.3162 135.1418 187.3323
ENERGY: 700000 2.3273 0.5714 25.0321 0.0000 -13035.8654 1927.0150 0.0000 0.0000 1290.3278 -9790.5918 216.9833 -11080.9196 -9786.8689 210.3879 -101.2721 10.4475 29207.0929 3.2068 3.1988
TCL: Running 100000 steps at 240 kelvin.
TCL: Setting parameter langevinTemp to 240
TCL: Running for 100000 steps
ETITLE: TS BOND ANGLE DIHED IMPRP ELECT VDW BOUNDARY MISC KINETIC TOTAL TEMP POTENTIAL TOTAL3 TEMPAVG PRESSURE GPRESSURE VOLUME PRESSAVG GPRESSAVG
ENERGY: 700000 2.3273 0.5714 25.0321 0.0000 -13035.8654 1927.0150 0.0000 0.0000 1289.7204 -9791.1992 216.8811 -11080.9196 -9788.6323 216.8811 -77.9749 11.8068 29207.0929 -77.9749 11.8068
ENERGY: 800000 3.6206 3.8381 26.7983 0.0000 -12470.0020 1742.0818 0.0000 0.0000 1425.8666 -9267.7967 239.7757 -10693.6633 -9265.8154 239.8758 -291.9255 -216.9470 29407.7330 2.8112 2.7573
TCL: Running 100000 steps at 270 kelvin.
TCL: Setting parameter langevinTemp to 270
TCL: Running for 100000 steps
ETITLE: TS BOND ANGLE DIHED IMPRP ELECT VDW BOUNDARY MISC KINETIC TOTAL TEMP POTENTIAL TOTAL3 TEMPAVG PRESSURE GPRESSURE VOLUME PRESSAVG GPRESSAVG
ENERGY: 800000 3.6206 3.8381 26.7983 0.0000 -12470.0020 1742.0818 0.0000 0.0000 1425.1395 -9268.5238 239.6534 -10693.6633 -9265.7708 239.6534 -297.7088 -217.5943 29407.7330 -297.7088 -217.5943
ENERGY: 900000 3.0890 0.8993 25.9648 0.0000 -11687.0028 1564.7022 0.0000 0.0000 1654.4885 -8437.8590 278.2210 -10092.3474 -8436.5367 270.4683 154.7015 265.8730 30068.1167 3.1768 3.3244
TCL: Running 1000000 steps at 300 kelvin.
TCL: Setting parameter langevinTemp to 300
TCL: Running for 1000000 steps
ETITLE: TS BOND ANGLE DIHED IMPRP ELECT VDW BOUNDARY MISC KINETIC TOTAL TEMP POTENTIAL TOTAL3 TEMPAVG PRESSURE GPRESSURE VOLUME PRESSAVG GPRESSAVG
ENERGY: 900000 3.0890 0.8993 25.9648 0.0000 -11687.0028 1564.7022 0.0000 0.0000 1653.7209 -8438.6265 278.0920 -10092.3474 -8436.4611 278.0920 184.6040 265.1958 30068.1167 184.6040 265.1958
ENERGY: 1100000 8.2136 3.0791 27.5304 0.0000 -11245.5849 1449.5411 0.0000 0.0000 1702.6666 -8054.5540 286.3228 -9757.2207 -8052.2248 299.8023 12.8045 140.9054 30562.1100 2.8273 2.7329
ENERGY: 1300000 5.8763 3.3546 24.8790 0.0000 -11243.5709 1424.7080 0.0000 0.0000 1807.1816 -7977.5714 303.8981 -9784.7530 -7971.5828 300.3405 -524.2609 -441.1249 31118.5537 3.5749 3.3459
ENERGY: 1500000 4.7220 5.6960 25.0878 0.0000 -11145.8302 1353.7450 0.0000 0.0000 1860.2744 -7896.3050 312.8263 -9756.5794 -7892.1356 301.0578 -1033.8698 -971.4504 30959.0197 1.9193 1.7808
ENERGY: 1700000 2.3868 1.7613 26.7957 0.0000 -11266.7308 1511.2352 0.0000 0.0000 1804.7118 -7919.8401 303.4828 -9724.5519 -7918.1075 300.1030 472.6896 489.9008 30795.5876 3.4324 3.2381
ENERGY: 1900000 5.4871 2.0632 27.1154 0.0000 -11320.6842 1529.3198 0.0000 0.0000 1767.6879 -7989.0108 297.2568 -9756.6988 -7986.3736 300.1895 674.6376 716.9449 30743.5972 2.4078 2.5888
TCL: Exiting due to exit command.
