Info: SIMULATION PARAMETERS:
Info: TIMESTEP               2
Info: NUMBER OF STEPS        0
Info: STEPS PER CYCLE        10
Info: PERIODIC CELL BASIS 1  31.5108 0 0
Info: PERIODIC CELL BASIS 2  0 31.0902 0
Info: PERIODIC CELL BASIS 3  0 0 31.2948
Info: PERIODIC CELL CENTER   0 0 0
Info: WRAPPING WATERS AROUND PERIODIC BOUNDARIES ON OUTPUT.
Info: WRAPPING ALL CLUSTERS AROUND PERIODIC BOUNDARIES ON OUTPUT.
Info: FIRST LDB TIMESTEP     50
Info: LAST LDB TIMESTEP     -1
Info: HOM BACKGROUND SCALING 1
Info: PME BACKGROUND SCALING 1
Info: MIN ATOMS PER PATCH    40
Info: EMPTY PATCH LOAD       40 ATOMS
Info: VELOCITY FILE          mobley_2481002_equil.vel
Info: CENTER OF MASS MOVING INITIALLY? NO
Info: DIELECTRIC             1
Info: EXCLUDE                SCALED ONE-FOUR
Info: 1-4 ELECTROSTATICS SCALED BY 0.833333
Info: MODIFIED 1-4 VDW PARAMETERS WILL BE USED
Info: DCD FILENAME           mobley_2481002_prod.dcd
Info: DCD FREQUENCY          100000
Info: DCD FIRST STEP         100000
Info: DCD FILE WILL CONTAIN UNIT CELL DATA
Info: XST FILENAME           mobley_2481002_prod.xst
Info: XST FREQUENCY          100000
Info: NO VELOCITY DCD OUTPUT
Info: NO FORCE DCD OUTPUT
Info: OUTPUT FILENAME        mobley_2481002_prod
Info: BINARY OUTPUT FILES WILL BE USED
Info: RESTART FILENAME       mobley_2481002_prod.restart
Info: RESTART FREQUENCY      100000
Info: BINARY RESTART FILES WILL BE USED
Info: CUTOFF                 9
Info: PAIRLIST DISTANCE      11
Info: PAIRLIST SHRINK RATE   0.01
Info: PAIRLIST GROW RATE     0.01
Info: PAIRLIST TRIGGER       0.3
Info: PAIRLISTS PER CYCLE    2
Info: PAIRLISTS ENABLED
Info: MARGIN                 2
Info: HYDROGEN GROUP CUTOFF  2.5
Info: PATCH DIMENSION        15.5
Info: ENERGY OUTPUT STEPS    100000
Info: ENERGY EVALUATION STEPS    100000
Info: OUTPUT ENERGY PRECISION 4
Info: CROSSTERM ENERGY INCLUDED IN DIHEDRAL
Info: TIMING OUTPUT STEPS    1000000
Info: PRESSURE OUTPUT STEPS  100000
Info: FIXED ATOMS ACTIVE
Info: ALCHEMICAL FEP ON
Info: FEP CURRENT LAMBDA VALUE     0.5
Info: FEP COMPARISON LAMBDA VALUE  0.55
Info: FEP INTRA-ALCHEMICAL NON-BONDED INTERACTIONS WILL BE RETAINED
Info: FEP INTRA-ALCHEMICAL BONDED INTERACTIONS WILL BE RETAINED
Info: FEP VDW SHIFTING COEFFICIENT 5
Info: FEP ELEC. ACTIVE FOR ANNIHILATED PARTICLES BETWEEN LAMBDA = 0 AND LAMBDA = 0.5
Info: FEP ELEC. ACTIVE FOR EXNIHILATED PARTICLES BETWEEN LAMBDA = 0.5 AND LAMBDA = 1
Info: FEP VDW ACTIVE FOR ANNIHILATED PARTICLES BETWEEN LAMBDA = 0 AND LAMBDA = 1
Info: FEP VDW ACTIVE FOR EXNIHILATED PARTICLES BETWEEN LAMBDA = 0 AND LAMBDA = 1
Info: FEP BOND ACTIVE FOR ANNIHILATED PARTICLES BETWEEN LAMBDA = 1 AND LAMBDA = 1
Info: FEP BOND ACTIVE FOR EXNIHILATED PARTICLES BETWEEN LAMBDA = 0 AND LAMBDA = 0
Info: LANGEVIN DYNAMICS ACTIVE
Info: LANGEVIN TEMPERATURE   300
Info: LANGEVIN USING BBK INTEGRATOR
Info: LANGEVIN DAMPING COEFFICIENT IS 1 INVERSE PS
Info: LANGEVIN DYNAMICS APPLIED TO HYDROGENS
Info: LANGEVIN PISTON PRESSURE CONTROL ACTIVE
Info:        TARGET PRESSURE IS 1.01325 BAR
Info:     OSCILLATION PERIOD IS 50 FS
Info:             DECAY TIME IS 25 FS
Info:     PISTON TEMPERATURE IS 300 K
Info:       PRESSURE CONTROL IS GROUP-BASED
Info:    INITIAL STRAIN RATE IS 0.000102786 0.000102786 0.000102786
Info:       CELL FLUCTUATION IS ISOTROPIC
Info: PARTICLE MESH EWALD (PME) ACTIVE
Info: PME TOLERANCE               1e-06
Info: PME EWALD COEFFICIENT       0.348832
Info: PME INTERPOLATION ORDER     4
Info: PME GRID DIMENSIONS         32 32 32
Info: PME MAXIMUM GRID SPACING    1
Info: FULL ELECTROSTATIC EVALUATION FREQUENCY      2
Info: USING VERLET I (r-RESPA) MTS SCHEME.
Info: C1 SPLITTING OF LONG RANGE ELECTROSTATICS
Info: PLACING ATOMS IN PATCHES BY HYDROGEN GROUPS
Info: RIGID BONDS TO HYDROGEN : ALL
Info:         ERROR TOLERANCE : 1e-08
Info:          MAX ITERATIONS : 100
Info: RIGID WATER USING SETTLE ALGORITHM
Info: RANDOM NUMBER SEED     1742744194
Info: USE HYDROGEN BONDS?    NO
Info: Using AMBER format force field!
Info: AMBER PARM FILE        mobley_2481002.prmtop
Info: COORDINATE PDB         mobley_2481002.pdb
Info: Exclusions will be read from PARM file!
Info: SCNB (VDW SCALING)     2
Info: USING ARITHMETIC MEAN TO COMBINE L-J SIGMA PARAMETERS
Info: BINARY COORDINATES     mobley_2481002_equil.coor
Info: MIXED PRECISION AVX-512 TILES OPTIMIZATIONS: DISABLED
Info: SUMMARY OF PARAMETERS:
Info: 5 BONDS
Info: 4 ANGLES
Info:   4 HARMONIC
Info:   0 COSINE-BASED
Info: 1 DIHEDRAL
Info: 0 IMPROPER
Info: 0 CROSSTERM
Info: 0 VDW
Info: 21 VDW_PAIRS
Info: 0 NBTHOLE_PAIRS
Info: To read alchdata from file: mobley_2481002.pdb
Info: To read alchflag data from column: 5
Info: STRUCTURE SUMMARY:
Info: 2971 ATOMS
Info: 2970 BONDS
Info: 9 ANGLES
Info: 6 DIHEDRALS
Info: 0 IMPROPERS
Info: 0 CROSSTERMS
Info: 2985 EXCLUSIONS
Info: 7 FIXED ATOMS
Info: 2964 RIGID BONDS
Info: 0 RIGID BONDS BETWEEN FIXED ATOMS
Info: ALCH: 0 ATOMS TO DISAPPEAR IN FINAL STATE
Info: ALCH: 7 ATOMS TO APPEAR IN FINAL STATE
Info: 5928 DEGREES OF FREEDOM
Info: 995 HYDROGEN GROUPS
Info: 3 ATOMS IN LARGEST HYDROGEN GROUP
Info: 995 MIGRATION GROUPS
Info: 3 ATOMS IN LARGEST MIGRATION GROUP
Info: 7 HYDROGEN GROUPS WITH ALL ATOMS FIXED
Info: TOTAL MASS = 17964.2 amu
Info: TOTAL CHARGE = 1.11759e-08 e
Info: MASS DENSITY = 0.972998 g/cm^3
Info: ATOM DENSITY = 0.0969054 atoms/A^3
Info: ADDED 0 IMPLICIT EXCLUSIONS
Info: NONBONDED TABLE R-SQUARED SPACING: 0.0625
Info: NONBONDED TABLE SIZE: 705 POINTS
Info: REMOVING COM VELOCITY -0.2765 0.0502545 0.0724396
TCL: Running for 2500000 steps
ETITLE: TS BOND ANGLE DIHED IMPRP ELECT VDW BOUNDARY MISC KINETIC TOTAL TEMP POTENTIAL TOTAL3 TEMPAVG PRESSURE GPRESSURE VOLUME PRESSAVG GPRESSAVG
ENERGY: 0 0.0000 0.0000 0.0000 0.0000 -10616.5174 1340.9927 0.0000 0.0000 1750.2955 -7525.2292 297.1622 -9275.5247 -7521.7631 297.1622 -721.0419 -633.3370 30658.7620 -721.0419 -633.3370
ENERGY: 500000 0.0000 0.0000 0.0000 0.0000 -10766.5152 1362.3771 0.0000 0.0000 1761.5068 -7642.6314 299.0656 -9404.1381 -7639.2961 299.8279 -722.6824 -630.5479 30267.3310 3.9841 3.9562
ENERGY: 1000000 0.0000 0.0000 0.0000 0.0000 -10642.3249 1349.4250 0.0000 0.0000 1712.6938 -7580.2061 290.7782 -9292.8999 -7576.4843 299.6423 -450.3981 -448.6512 30226.2591 3.4897 3.4437
ENERGY: 1500000 0.0000 0.0000 0.0000 0.0000 -10872.3120 1506.2363 0.0000 0.0000 1756.7809 -7609.2949 298.2633 -9366.0758 -7606.8776 300.0212 600.6779 618.0136 30228.1931 3.1748 3.1836
ENERGY: 2000000 0.0000 0.0000 0.0000 0.0000 -10638.9467 1327.4788 0.0000 0.0000 1784.6895 -7526.7784 303.0016 -9311.4679 -7520.8007 299.6615 -1072.1513 -986.4067 31193.9335 2.8548 2.8668
ENERGY: 2500000 0.0000 0.0000 0.0000 0.0000 -10692.8884 1433.8657 0.0000 0.0000 1823.7698 -7435.2529 309.6365 -9259.0227 -7432.9021 300.0922 109.9699 186.2416 30756.0058 2.0860 1.8713
TCL: Exiting due to exit command.
