Info: SIMULATION PARAMETERS:
Info: TIMESTEP               2
Info: NUMBER OF STEPS        0
Info: STEPS PER CYCLE        10
Info: PERIODIC CELL BASIS 1  31.4736 0 0
Info: PERIODIC CELL BASIS 2  0 29.7914 0
Info: PERIODIC CELL BASIS 3  0 0 32.1513
Info: PERIODIC CELL CENTER   0 0 0
Info: WRAPPING WATERS AROUND PERIODIC BOUNDARIES ON OUTPUT.
Info: WRAPPING ALL CLUSTERS AROUND PERIODIC BOUNDARIES ON OUTPUT.
Info: FIRST LDB TIMESTEP     50
Info: LAST LDB TIMESTEP     -1
Info: HOM BACKGROUND SCALING 1
Info: PME BACKGROUND SCALING 1
Info: MIN ATOMS PER PATCH    40
Info: EMPTY PATCH LOAD       40 ATOMS
Info: VELOCITY FILE          mobley_7200804_equil.vel
Info: CENTER OF MASS MOVING INITIALLY? NO
Info: DIELECTRIC             1
Info: EXCLUDE                SCALED ONE-FOUR
Info: 1-4 ELECTROSTATICS SCALED BY 0.833333
Info: MODIFIED 1-4 VDW PARAMETERS WILL BE USED
Info: DCD FILENAME           mobley_7200804_prod.dcd
Info: DCD FREQUENCY          100000
Info: DCD FIRST STEP         100000
Info: DCD FILE WILL CONTAIN UNIT CELL DATA
Info: XST FILENAME           mobley_7200804_prod.xst
Info: XST FREQUENCY          100000
Info: NO VELOCITY DCD OUTPUT
Info: NO FORCE DCD OUTPUT
Info: OUTPUT FILENAME        mobley_7200804_prod
Info: BINARY OUTPUT FILES WILL BE USED
Info: RESTART FILENAME       mobley_7200804_prod.restart
Info: RESTART FREQUENCY      100000
Info: BINARY RESTART FILES WILL BE USED
Info: CUTOFF                 9
Info: PAIRLIST DISTANCE      11
Info: PAIRLIST SHRINK RATE   0.01
Info: PAIRLIST GROW RATE     0.01
Info: PAIRLIST TRIGGER       0.3
Info: PAIRLISTS PER CYCLE    2
Info: PAIRLISTS ENABLED
Info: MARGIN                 2
Info: HYDROGEN GROUP CUTOFF  2.5
Info: PATCH DIMENSION        15.5
Info: ENERGY OUTPUT STEPS    100000
Info: ENERGY EVALUATION STEPS    100000
Info: OUTPUT ENERGY PRECISION 4
Info: CROSSTERM ENERGY INCLUDED IN DIHEDRAL
Info: TIMING OUTPUT STEPS    1000000
Info: PRESSURE OUTPUT STEPS  100000
Info: ALCHEMICAL FEP ON
Info: FEP CURRENT LAMBDA VALUE     0
Info: FEP COMPARISON LAMBDA VALUE  0.05
Info: FEP INTRA-ALCHEMICAL NON-BONDED INTERACTIONS WILL BE RETAINED
Info: FEP INTRA-ALCHEMICAL BONDED INTERACTIONS WILL BE RETAINED
Info: FEP VDW SHIFTING COEFFICIENT 5
Info: FEP ELEC. ACTIVE FOR ANNIHILATED PARTICLES BETWEEN LAMBDA = 0 AND LAMBDA = 0.5
Info: FEP ELEC. ACTIVE FOR EXNIHILATED PARTICLES BETWEEN LAMBDA = 0.5 AND LAMBDA = 1
Info: FEP VDW ACTIVE FOR ANNIHILATED PARTICLES BETWEEN LAMBDA = 0 AND LAMBDA = 1
Info: FEP VDW ACTIVE FOR EXNIHILATED PARTICLES BETWEEN LAMBDA = 0 AND LAMBDA = 1
Info: FEP BOND ACTIVE FOR ANNIHILATED PARTICLES BETWEEN LAMBDA = 1 AND LAMBDA = 1
Info: FEP BOND ACTIVE FOR EXNIHILATED PARTICLES BETWEEN LAMBDA = 0 AND LAMBDA = 0
Info: LANGEVIN DYNAMICS ACTIVE
Info: LANGEVIN TEMPERATURE   300
Info: LANGEVIN USING BBK INTEGRATOR
Info: LANGEVIN DAMPING COEFFICIENT IS 1 INVERSE PS
Info: LANGEVIN DYNAMICS APPLIED TO HYDROGENS
Info: LANGEVIN PISTON PRESSURE CONTROL ACTIVE
Info:        TARGET PRESSURE IS 1.01325 BAR
Info:     OSCILLATION PERIOD IS 50 FS
Info:             DECAY TIME IS 25 FS
Info:     PISTON TEMPERATURE IS 300 K
Info:       PRESSURE CONTROL IS GROUP-BASED
Info:    INITIAL STRAIN RATE IS 0.000150547 0.000150547 0.000150547
Info:       CELL FLUCTUATION IS ISOTROPIC
Info: PARTICLE MESH EWALD (PME) ACTIVE
Info: PME TOLERANCE               1e-06
Info: PME EWALD COEFFICIENT       0.348832
Info: PME INTERPOLATION ORDER     4
Info: PME GRID DIMENSIONS         32 32 36
Info: PME MAXIMUM GRID SPACING    1
Info: PME CALCULATION WILL BE PERFORMED ON GPU
Info: FULL ELECTROSTATIC EVALUATION FREQUENCY      2
Info: USING VERLET I (r-RESPA) MTS SCHEME.
Info: C1 SPLITTING OF LONG RANGE ELECTROSTATICS
Info: PLACING ATOMS IN PATCHES BY HYDROGEN GROUPS
Info: RIGID BONDS TO HYDROGEN : ALL
Info:         ERROR TOLERANCE : 1e-08
Info:          MAX ITERATIONS : 100
Info: RIGID WATER USING SETTLE ALGORITHM
Info: RANDOM NUMBER SEED     1742596451
Info: USE HYDROGEN BONDS?    NO
Info: Using AMBER format force field!
Info: AMBER PARM FILE        mobley_7200804.prmtop
Info: COORDINATE PDB         mobley_7200804.pdb
Info: Exclusions will be read from PARM file!
Info: SCNB (VDW SCALING)     2
Info: USING ARITHMETIC MEAN TO COMBINE L-J SIGMA PARAMETERS
Info: BINARY COORDINATES     mobley_7200804_equil.coor
Info: SUMMARY OF PARAMETERS:
Info: 7 BONDS
Info: 5 ANGLES
Info:   5 HARMONIC
Info:   0 COSINE-BASED
Info: 3 DIHEDRAL
Info: 0 IMPROPER
Info: 0 CROSSTERM
Info: 0 VDW
Info: 28 VDW_PAIRS
Info: 0 NBTHOLE_PAIRS
Info: To read alchdata from file: mobley_7200804.pdb
Info: To read alchflag data from column: 5
Info: STRUCTURE SUMMARY:
Info: 2911 ATOMS
Info: 2911 BONDS
Info: 19 ANGLES
Info: 31 DIHEDRALS
Info: 0 IMPROPERS
Info: 0 CROSSTERMS
Info: 2953 EXCLUSIONS
Info: 2903 RIGID BONDS
Info: ALCH: 0 ATOMS TO DISAPPEAR IN FINAL STATE
Info: ALCH: 13 ATOMS TO APPEAR IN FINAL STATE
Info: 5830 DEGREES OF FREEDOM
Info: 974 HYDROGEN GROUPS
Info: 3 ATOMS IN LARGEST HYDROGEN GROUP
Info: 974 MIGRATION GROUPS
Info: 3 ATOMS IN LARGEST MIGRATION GROUP
Info: TOTAL MASS = 17515.6 amu
Info: TOTAL CHARGE = -0.000100017 e
Info: MASS DENSITY = 0.964825 g/cm^3
Info: ATOM DENSITY = 0.0965623 atoms/A^3
Info: ADDED 0 IMPLICIT EXCLUSIONS
Info: NONBONDED TABLE R-SQUARED SPACING: 0.0625
Info: NONBONDED TABLE SIZE: 705 POINTS
Info: REMOVING COM VELOCITY -0.0625663 -0.0415192 0.0938376
Info: Use 3D box decompostion in PME FFT.
Info: Updated CUDA force table with 4096 elements.
Info: Updated CUDA LJ table with 7 x 7 elements.
Info: Found 15 unique exclusion lists needing 28 bytes
TCL: Running for 1500000 steps
ETITLE: TS BOND ANGLE DIHED IMPRP ELECT VDW BOUNDARY MISC KINETIC TOTAL TEMP POTENTIAL TOTALAVG TEMPAVG PRESSURE GPRESSURE VOLUME PRESSAVG GPRESSAVG
ENERGY: 0 0.9650 3.4584 4.9513 0.0000 -10413.9868 1339.7866 0.0000 0.0000 1693.3517 -7371.4739 292.3270 -9064.8255 -7371.4739 292.3270 -505.6649 -407.2697 30146.3489 -505.6649 -407.2697
ENERGY: 300000 2.0795 4.1166 2.0750 0.0000 -10522.5790 1415.4479 0.0000 0.0000 1746.5522 -7352.3078 301.5112 -9098.8600 -7402.2534 296.9105 -107.1128 -49.8478 30022.6034 -111.5248 -20.3863
ENERGY: 600000 1.4195 1.6222 1.8222 0.0000 -10616.4900 1467.3768 0.0000 0.0000 1738.5659 -7405.6834 300.1325 -9144.2493 -7395.5347 295.2943 370.1329 385.7048 29829.6446 51.4746 118.0530
ENERGY: 900000 2.9110 2.4795 2.3893 0.0000 -10582.5100 1377.2348 0.0000 0.0000 1621.2876 -7576.2079 279.8865 -9197.4955 -7409.9322 295.9169 -741.8141 -709.6163 29595.0457 -78.7952 -9.0904
ENERGY: 1200000 2.3578 3.3424 1.4792 0.0000 -10524.0239 1341.6286 0.0000 0.0000 1679.8983 -7495.3175 290.0046 -9175.2158 -7404.2083 297.2061 -969.5604 -871.0618 30007.7386 -175.7852 -104.5091
ENERGY: 1500000 1.5894 4.8892 1.8791 0.0000 -10596.4639 1425.0251 0.0000 0.0000 1689.2842 -7473.7968 291.6249 -9163.0810 -7403.2713 297.5518 -13.3804 30.9585 29424.7593 -112.8354 -39.2747
TCL: Running FEP window   2: Lambda1 0.05   Lambda2 0.1    [dLambda 0.05  ]
TCL: Setting parameter firsttimestep to 0
TCL: Setting parameter alchLambda to 0.05
Info: NONBONDED TABLE R-SQUARED SPACING: 0.0625
Info: NONBONDED TABLE SIZE: 705 POINTS
TCL: Setting parameter alchLambda2 to 0.1
Info: NONBONDED TABLE R-SQUARED SPACING: 0.0625
Info: NONBONDED TABLE SIZE: 705 POINTS
TCL: Running for 1500000 steps
ETITLE: TS BOND ANGLE DIHED IMPRP ELECT VDW BOUNDARY MISC KINETIC TOTAL TEMP POTENTIAL TOTALAVG TEMPAVG PRESSURE GPRESSURE VOLUME PRESSAVG GPRESSAVG
ENERGY: 0 1.5894 4.8892 1.8791 0.0000 -10596.4632 1427.3890 0.0000 0.0000 1688.4282 -7472.2883 291.4771 -9160.7164 -7472.2883 291.4771 -44.8963 39.0292 29424.7593 -44.8963 39.0292
ENERGY: 300000 0.8714 1.7734 1.9906 0.0000 -10387.4056 1331.2908 0.0000 0.0000 1712.1673 -7339.3121 295.5752 -9051.4793 -7400.6214 299.7579 -506.8186 -487.7490 29783.0472 -20.3554 32.3314
ENERGY: 600000 2.3397 2.2805 5.4955 0.0000 -10608.1747 1431.7971 0.0000 0.0000 1752.1237 -7414.1382 302.4730 -9166.2619 -7376.7340 300.8644 51.7589 83.0281 29587.0314 -51.8810 11.4301
ENERGY: 900000 3.7329 2.4564 2.0953 0.0000 -10531.3832 1492.7600 0.0000 0.0000 1721.3063 -7309.0322 297.1529 -9030.3385 -7369.4254 300.2245 760.6447 784.7315 29914.0104 -97.4628 -37.4736
ENERGY: 1200000 0.5082 1.2766 5.1924 0.0000 -10618.1480 1487.5430 0.0000 0.0000 1721.3991 -7402.2287 297.1689 -9123.6279 -7365.6760 300.4537 434.6676 521.9955 29791.7571 46.3111 106.1180
ENERGY: 1500000 4.1923 1.4191 6.9140 0.0000 -10630.1328 1446.4276 0.0000 0.0000 1787.2908 -7383.8889 308.5440 -9171.1797 -7372.4542 300.7746 427.2019 453.4698 29189.1159 113.5147 175.0112
TCL: Running FEP window   3: Lambda1 0.1    Lambda2 0.15000000000000002 [dLambda 0.05000000000000002]
TCL: Setting parameter firsttimestep to 0
TCL: Setting parameter alchLambda to 0.1
Info: NONBONDED TABLE R-SQUARED SPACING: 0.0625
Info: NONBONDED TABLE SIZE: 705 POINTS
TCL: Setting parameter alchLambda2 to 0.15000000000000002
Info: NONBONDED TABLE R-SQUARED SPACING: 0.0625
Info: NONBONDED TABLE SIZE: 705 POINTS
TCL: Running for 1500000 steps
ETITLE: TS BOND ANGLE DIHED IMPRP ELECT VDW BOUNDARY MISC KINETIC TOTAL TEMP POTENTIAL TOTALAVG TEMPAVG PRESSURE GPRESSURE VOLUME PRESSAVG GPRESSAVG
ENERGY: 0 4.1923 1.4191 6.9140 0.0000 -10630.1324 1448.7427 0.0000 0.0000 1786.4681 -7382.3962 308.4019 -9168.8643 -7382.3962 308.4019 375.2840 462.1301 29189.1159 375.2840 462.1301
ENERGY: 300000 3.3607 5.2837 3.2397 0.0000 -10772.5777 1507.7660 0.0000 0.0000 1713.7063 -7539.2212 295.8409 -9252.9275 -7411.6785 302.5520 262.6096 361.6331 29493.3616 404.6500 455.1311
ENERGY: 600000 1.5789 2.3354 3.2537 0.0000 -10401.1712 1344.2521 0.0000 0.0000 1746.5686 -7303.1825 301.5140 -9049.7511 -7386.0410 301.8581 -413.7142 -355.9069 30168.3055 92.3352 144.6744
ENERGY: 900000 1.1923 3.8932 3.4933 0.0000 -10752.7836 1573.5398 0.0000 0.0000 1739.6631 -7431.0020 300.3219 -9170.6651 -7393.8268 301.6161 1031.7988 1135.9717 29506.2364 165.9434 227.6439
ENERGY: 1200000 4.3670 4.4420 5.5062 0.0000 -10545.2547 1379.3248 0.0000 0.0000 1715.8979 -7435.7168 296.2192 -9151.6147 -7383.1234 301.0351 -716.9474 -690.1856 30012.3256 86.7756 151.6024
ENERGY: 1500000 1.8049 4.1586 2.1959 0.0000 -10655.3526 1502.9512 0.0000 0.0000 1759.0337 -7385.2084 303.6659 -9144.2421 -7386.7181 301.4331 389.1131 496.4313 30116.3248 142.9583 204.3734
TCL: Running FEP window   4: Lambda1 0.15000000000000002 Lambda2 0.2    [dLambda 0.04999999999999999]
TCL: Setting parameter firsttimestep to 0
TCL: Setting parameter alchLambda to 0.15000000000000002
Info: NONBONDED TABLE R-SQUARED SPACING: 0.0625
Info: NONBONDED TABLE SIZE: 705 POINTS
TCL: Setting parameter alchLambda2 to 0.2
Info: NONBONDED TABLE R-SQUARED SPACING: 0.0625
Info: NONBONDED TABLE SIZE: 705 POINTS
TCL: Running for 1500000 steps
ETITLE: TS BOND ANGLE DIHED IMPRP ELECT VDW BOUNDARY MISC KINETIC TOTAL TEMP POTENTIAL TOTALAVG TEMPAVG PRESSURE GPRESSURE VOLUME PRESSAVG GPRESSAVG
ENERGY: 0 1.8049 4.1586 2.1959 0.0000 -10655.3517 1503.6760 0.0000 0.0000 1758.1422 -7385.3741 303.5120 -9143.5163 -7385.3741 303.5120 414.6901 497.4282 30116.3248 414.6901 497.4282
ENERGY: 300000 2.9124 2.4025 3.0117 0.0000 -10566.9836 1411.9713 0.0000 0.0000 1770.9866 -7375.6991 305.7293 -9146.6857 -7374.8319 304.1345 2.5827 38.3346 29572.4318 161.7830 220.1471
ENERGY: 600000 1.6934 5.7156 3.0574 0.0000 -10574.9413 1414.9281 0.0000 0.0000 1729.5319 -7420.0148 298.5729 -9149.5467 -7393.1020 301.2606 -185.0460 -185.0001 29931.9928 146.4411 209.3189
ENERGY: 900000 1.1666 3.6420 2.6622 0.0000 -10490.4862 1373.1059 0.0000 0.0000 1732.1541 -7377.7554 299.0256 -9109.9095 -7389.0842 300.2122 -477.8473 -422.0288 30104.8174 -4.5488 60.5986
ENERGY: 1200000 2.7415 2.8627 2.1776 0.0000 -10602.3886 1464.3611 0.0000 0.0000 1689.0778 -7441.1678 291.5892 -9130.2457 -7383.9767 300.0058 -107.0808 -8.9370 30629.3922 -37.2401 39.2716
ENERGY: 1500000 1.0889 3.9114 2.0604 0.0000 -10668.5280 1459.8158 0.0000 0.0000 1725.2200 -7476.4315 297.8285 -9201.6515 -7390.9621 299.5154 166.1345 258.1357 29485.9522 -40.4199 33.5184
TCL: Running FEP window   5: Lambda1 0.2    Lambda2 0.25   [dLambda 0.04999999999999999]
TCL: Setting parameter firsttimestep to 0
TCL: Setting parameter alchLambda to 0.2
Info: NONBONDED TABLE R-SQUARED SPACING: 0.0625
Info: NONBONDED TABLE SIZE: 705 POINTS
TCL: Setting parameter alchLambda2 to 0.25
Info: NONBONDED TABLE R-SQUARED SPACING: 0.0625
Info: NONBONDED TABLE SIZE: 705 POINTS
TCL: Running for 1500000 steps
ETITLE: TS BOND ANGLE DIHED IMPRP ELECT VDW BOUNDARY MISC KINETIC TOTAL TEMP POTENTIAL TOTALAVG TEMPAVG PRESSURE GPRESSURE VOLUME PRESSAVG GPRESSAVG
ENERGY: 0 1.0889 3.9114 2.0604 0.0000 -10668.5283 1460.3141 0.0000 0.0000 1724.3760 -7476.7776 297.6828 -9201.1535 -7476.7776 297.6828 172.0576 264.7715 29485.9522 172.0576 264.7715
ENERGY: 300000 1.2668 1.8688 4.7996 0.0000 -10559.6125 1456.2601 0.0000 0.0000 1718.0900 -7377.3272 296.5977 -9095.4172 -7398.5569 299.7740 582.9552 659.4556 29349.1866 124.3705 207.1403
ENERGY: 600000 6.0875 1.2655 3.4034 0.0000 -10500.4416 1432.2879 0.0000 0.0000 1739.1455 -7318.2517 300.2325 -9057.3972 -7397.2041 299.5241 143.2350 111.3847 30302.5222 -37.5236 18.6990
ENERGY: 900000 3.0200 1.7054 1.9930 0.0000 -10456.5144 1389.1364 0.0000 0.0000 1690.7997 -7369.8601 291.8865 -9060.6597 -7397.0013 299.8549 -187.3212 -133.7606 30296.7999 -170.9137 -112.2676
ENERGY: 1200000 2.0244 3.4398 3.3559 0.0000 -10570.3063 1371.9538 0.0000 0.0000 1744.2382 -7445.2941 301.1117 -9189.5324 -7400.6636 299.8660 -723.2528 -615.9207 30060.3031 -209.8908 -146.9062
ENERGY: 1500000 2.4182 2.0182 3.4435 0.0000 -10640.5961 1521.1653 0.0000 0.0000 1786.6081 -7324.9429 308.4261 -9111.5510 -7393.6150 300.4841 922.5256 925.8064 29890.0149 -200.5774 -138.6361
TCL: Running FEP window   6: Lambda1 0.25   Lambda2 0.3    [dLambda 0.04999999999999999]
TCL: Setting parameter firsttimestep to 0
TCL: Setting parameter alchLambda to 0.25
Info: NONBONDED TABLE R-SQUARED SPACING: 0.0625
Info: NONBONDED TABLE SIZE: 705 POINTS
TCL: Setting parameter alchLambda2 to 0.3
Info: NONBONDED TABLE R-SQUARED SPACING: 0.0625
Info: NONBONDED TABLE SIZE: 705 POINTS
TCL: Running for 1500000 steps
ETITLE: TS BOND ANGLE DIHED IMPRP ELECT VDW BOUNDARY MISC KINETIC TOTAL TEMP POTENTIAL TOTALAVG TEMPAVG PRESSURE GPRESSURE VOLUME PRESSAVG GPRESSAVG
ENERGY: 0 2.4182 2.0182 3.4435 0.0000 -10640.5940 1521.2123 0.0000 0.0000 1785.7191 -7325.7828 308.2726 -9111.5019 -7325.7828 308.2726 853.2443 929.2528 29890.0149 853.2443 929.2528
ENERGY: 300000 1.1812 3.0836 1.8556 0.0000 -10422.9656 1378.3786 0.0000 0.0000 1747.7933 -7290.6733 301.7254 -9038.4666 -7314.4040 304.2984 -211.3852 -177.1813 30556.9487 134.1067 208.4332
ENERGY: 600000 2.1597 2.1667 5.3536 0.0000 -10518.6528 1383.9617 0.0000 0.0000 1703.4004 -7421.6108 294.0618 -9125.0112 -7339.6385 301.8128 -231.5566 -160.0420 29507.1070 59.0398 135.7979
ENERGY: 900000 2.4064 3.0064 2.9664 0.0000 -10547.2015 1455.4572 0.0000 0.0000 1709.0709 -7374.2943 295.0407 -9083.3652 -7355.5227 300.4648 166.8646 241.0040 30289.3005 28.8230 98.5377
ENERGY: 1200000 3.7671 3.3818 4.5964 0.0000 -10559.0568 1424.3898 0.0000 0.0000 1825.1601 -7297.7615 315.0814 -9122.9216 -7354.9252 301.1696 -185.5109 -140.5372 30387.2989 4.5387 60.7092
ENERGY: 1500000 2.7695 4.1256 3.4104 0.0000 -10427.4026 1300.9426 0.0000 0.0000 1705.0809 -7411.0736 294.3519 -9116.1546 -7364.1137 301.1868 -1193.6799 -1168.1122 30484.9825 -53.5217 6.6064
TCL: Running FEP window   7: Lambda1 0.3    Lambda2 0.35   [dLambda 0.04999999999999999]
TCL: Setting parameter firsttimestep to 0
TCL: Setting parameter alchLambda to 0.3
Info: NONBONDED TABLE R-SQUARED SPACING: 0.0625
Info: NONBONDED TABLE SIZE: 705 POINTS
TCL: Setting parameter alchLambda2 to 0.35
Info: NONBONDED TABLE R-SQUARED SPACING: 0.0625
Info: NONBONDED TABLE SIZE: 705 POINTS
TCL: Running for 1500000 steps
ETITLE: TS BOND ANGLE DIHED IMPRP ELECT VDW BOUNDARY MISC KINETIC TOTAL TEMP POTENTIAL TOTALAVG TEMPAVG PRESSURE GPRESSURE VOLUME PRESSAVG GPRESSAVG
ENERGY: 0 2.7695 4.1256 3.4104 0.0000 -10427.4022 1301.3164 0.0000 0.0000 1704.2388 -7411.5415 294.2065 -9115.7803 -7411.5415 294.2065 -1230.2142 -1163.8780 30484.9825 -1230.2142 -1163.8780
ENERGY: 300000 2.0248 2.3716 4.8921 0.0000 -10494.8026 1387.2866 0.0000 0.0000 1732.0958 -7366.1317 299.0155 -9098.2276 -7370.7062 302.6518 -102.0572 -105.4490 29898.8478 -309.4634 -256.8500
ENERGY: 600000 3.8240 1.9162 2.7418 0.0000 -10442.0525 1387.3389 0.0000 0.0000 1695.7264 -7350.5052 292.7370 -9046.2316 -7356.2036 301.5299 -28.9854 -50.2522 29965.8795 -307.7087 -256.7020
ENERGY: 900000 0.7522 3.5355 3.0233 0.0000 -10547.2172 1404.7427 0.0000 0.0000 1704.4433 -7430.7201 294.2418 -9135.1634 -7364.7512 301.3657 63.5820 164.4719 29271.9149 -235.2557 -175.5371
ENERGY: 1200000 0.7654 3.8938 4.6408 0.0000 -10657.8391 1478.8637 0.0000 0.0000 1750.9899 -7418.6855 302.2772 -9169.6754 -7367.2324 300.5188 329.8546 389.0341 29685.4366 -119.5872 -59.0628
ENERGY: 1500000 1.9100 2.6212 2.1284 0.0000 -10527.9116 1387.3667 0.0000 0.0000 1757.1356 -7376.7496 303.3382 -9133.8852 -7371.6608 300.8190 -152.4407 -83.1750 29524.5402 -136.1482 -76.2888
TCL: Running FEP window   8: Lambda1 0.35   Lambda2 0.39999999999999997 [dLambda 0.04999999999999999]
TCL: Setting parameter firsttimestep to 0
TCL: Setting parameter alchLambda to 0.35
Info: NONBONDED TABLE R-SQUARED SPACING: 0.0625
Info: NONBONDED TABLE SIZE: 705 POINTS
TCL: Setting parameter alchLambda2 to 0.39999999999999997
Info: NONBONDED TABLE R-SQUARED SPACING: 0.0625
Info: NONBONDED TABLE SIZE: 705 POINTS
TCL: Running for 1500000 steps
ETITLE: TS BOND ANGLE DIHED IMPRP ELECT VDW BOUNDARY MISC KINETIC TOTAL TEMP POTENTIAL TOTALAVG TEMPAVG PRESSURE GPRESSURE VOLUME PRESSAVG GPRESSAVG
ENERGY: 0 1.9100 2.6212 2.1284 0.0000 -10527.9126 1387.6596 0.0000 0.0000 1756.2680 -7377.3254 303.1884 -9133.5933 -7377.3254 303.1884 -156.3721 -81.5070 29524.5402 -156.3721 -81.5070
ENERGY: 300000 0.6632 2.6281 3.9129 0.0000 -10520.2504 1428.5524 0.0000 0.0000 1728.7029 -7355.7910 298.4298 -9084.4939 -7410.4705 299.6410 122.4662 155.6214 30225.7599 -98.6645 -39.3165
ENERGY: 600000 1.8020 2.9127 1.8216 0.0000 -10533.1210 1386.5221 0.0000 0.0000 1735.3399 -7404.7227 299.5756 -9140.0625 -7432.5238 298.1583 -351.5671 -317.2590 30016.0315 -198.7169 -127.0161
ENERGY: 900000 5.0327 4.2495 1.7690 0.0000 -10464.8895 1391.2073 0.0000 0.0000 1758.1446 -7304.4864 303.5124 -9062.6310 -7404.7885 298.2456 -626.5124 -461.3055 30620.3438 -315.4120 -230.6668
ENERGY: 1200000 0.8721 2.9107 3.3033 0.0000 -10428.2068 1348.1795 0.0000 0.0000 1736.8343 -7336.1069 299.8335 -9072.9412 -7393.9116 297.8949 -657.0916 -602.0941 30324.2803 -316.1687 -242.6540
ENERGY: 1500000 2.6118 4.1970 4.4143 0.0000 -10687.3108 1459.7865 0.0000 0.0000 1744.9728 -7471.3283 301.2385 -9216.3011 -7394.8956 298.2655 -9.0276 68.2156 29714.0381 -281.7783 -206.8991
TCL: Running FEP window   9: Lambda1 0.39999999999999997 Lambda2 0.44999999999999996 [dLambda 0.04999999999999999]
TCL: Setting parameter firsttimestep to 0
TCL: Setting parameter alchLambda to 0.39999999999999997
Info: NONBONDED TABLE R-SQUARED SPACING: 0.0625
Info: NONBONDED TABLE SIZE: 705 POINTS
TCL: Setting parameter alchLambda2 to 0.44999999999999996
Info: NONBONDED TABLE R-SQUARED SPACING: 0.0625
Info: NONBONDED TABLE SIZE: 705 POINTS
TCL: Running for 1500000 steps
ETITLE: TS BOND ANGLE DIHED IMPRP ELECT VDW BOUNDARY MISC KINETIC TOTAL TEMP POTENTIAL TOTALAVG TEMPAVG PRESSURE GPRESSURE VOLUME PRESSAVG GPRESSAVG
ENERGY: 0 2.6118 4.1970 4.4143 0.0000 -10687.3110 1460.1406 0.0000 0.0000 1744.1153 -7471.8320 301.0905 -9215.9473 -7471.8320 301.0905 -0.7810 77.0283 29714.0381 -0.7810 77.0283
ENERGY: 300000 3.5441 3.6966 3.5211 0.0000 -10443.5254 1337.3528 0.0000 0.0000 1744.2831 -7351.1277 301.1194 -9095.4108 -7413.0678 296.9614 -847.2436 -777.9293 30166.5702 -564.7882 -522.3507
ENERGY: 600000 4.3588 1.9639 2.7272 0.0000 -10600.7389 1450.6735 0.0000 0.0000 1716.8405 -7424.1749 296.3820 -9141.0154 -7386.6064 299.9099 142.1409 260.3318 29532.4499 -280.1771 -222.5678
ENERGY: 900000 2.9835 5.2149 3.0955 0.0000 -10431.4659 1356.1023 0.0000 0.0000 1740.1896 -7323.8802 300.4128 -9064.0698 -7382.9985 299.8676 -477.5745 -367.9080 30094.9162 -206.4938 -138.5566
ENERGY: 1200000 2.4290 1.8302 2.4887 0.0000 -10528.3127 1381.2289 0.0000 0.0000 1707.8416 -7432.4943 294.8285 -9140.3360 -7385.7827 299.6437 -546.7371 -514.7060 29950.6236 -163.6475 -89.3290
ENERGY: 1500000 1.3564 2.0308 3.3058 0.0000 -10558.3213 1411.0432 0.0000 0.0000 1762.7085 -7377.8765 304.3003 -9140.5851 -7386.7691 300.8170 -172.0601 -63.9774 29701.3290 -173.0626 -95.7763
TCL: Running FEP window  10: Lambda1 0.44999999999999996 Lambda2 0.49999999999999994 [dLambda 0.04999999999999999]
TCL: Setting parameter firsttimestep to 0
TCL: Setting parameter alchLambda to 0.44999999999999996
Info: NONBONDED TABLE R-SQUARED SPACING: 0.0625
Info: NONBONDED TABLE SIZE: 705 POINTS
TCL: Setting parameter alchLambda2 to 0.49999999999999994
Info: NONBONDED TABLE R-SQUARED SPACING: 0.0625
Info: NONBONDED TABLE SIZE: 705 POINTS
TCL: Running for 1500000 steps
ETITLE: TS BOND ANGLE DIHED IMPRP ELECT VDW BOUNDARY MISC KINETIC TOTAL TEMP POTENTIAL TOTALAVG TEMPAVG PRESSURE GPRESSURE VOLUME PRESSAVG GPRESSAVG
ENERGY: 0 1.3564 2.0308 3.3058 0.0000 -10558.3219 1411.7265 0.0000 0.0000 1761.8471 -7378.0553 304.1516 -9139.9024 -7378.0553 304.1516 -145.7094 -55.2125 29701.3290 -145.7094 -55.2125
ENERGY: 300000 2.4845 1.4154 3.1916 0.0000 -10577.8342 1441.0428 0.0000 0.0000 1681.2414 -7448.4585 290.2364 -9129.7000 -7423.5304 298.7255 7.2048 44.3461 30182.3484 -227.2463 -164.4081
ENERGY: 600000 2.1501 2.4598 1.7681 0.0000 -10586.9517 1431.4440 0.0000 0.0000 1749.9940 -7399.1357 302.1053 -9149.1297 -7402.3606 301.3852 -75.2389 -96.9180 30123.6972 -223.3469 -179.9117
ENERGY: 900000 2.0310 3.3556 3.3886 0.0000 -10573.0200 1423.9358 0.0000 0.0000 1778.0679 -7362.2410 306.9518 -9140.3089 -7380.6785 301.1814 65.2518 99.0088 29791.7666 -168.2412 -114.8330
ENERGY: 1200000 1.3710 3.6109 5.7654 0.0000 -10729.8304 1515.3720 0.0000 0.0000 1825.8125 -7377.8987 315.1940 -9203.7112 -7376.2776 302.2604 636.5780 701.1923 29910.5690 -190.8437 -124.0716
ENERGY: 1500000 3.0575 3.0040 4.1410 0.0000 -10655.5335 1470.1370 0.0000 0.0000 1753.7083 -7421.4856 302.7465 -9175.1940 -7383.9153 302.0157 535.7621 585.6639 29488.1395 -100.1228 -32.8520
TCL: Running FEP window  11: Lambda1 0.49999999999999994 Lambda2 0.5499999999999999 [dLambda 0.04999999999999999]
TCL: Setting parameter firsttimestep to 0
TCL: Setting parameter alchLambda to 0.49999999999999994
Info: NONBONDED TABLE R-SQUARED SPACING: 0.0625
Info: NONBONDED TABLE SIZE: 705 POINTS
TCL: Setting parameter alchLambda2 to 0.5499999999999999
Info: NONBONDED TABLE R-SQUARED SPACING: 0.0625
Info: NONBONDED TABLE SIZE: 705 POINTS
TCL: Running for 1500000 steps
ETITLE: TS BOND ANGLE DIHED IMPRP ELECT VDW BOUNDARY MISC KINETIC TOTAL TEMP POTENTIAL TOTALAVG TEMPAVG PRESSURE GPRESSURE VOLUME PRESSAVG GPRESSAVG
ENERGY: 0 3.0575 3.0040 4.1410 0.0000 -10655.5335 1471.0049 0.0000 0.0000 1752.8045 -7421.5215 302.5905 -9174.3260 -7421.5215 302.5905 513.6928 598.3749 29488.1395 513.6928 598.3749
ENERGY: 300000 4.4768 2.4880 4.0656 0.0000 -10675.4972 1455.0201 0.0000 0.0000 1743.1777 -7466.2689 300.9286 -9209.4467 -7432.9572 299.5208 146.3186 204.8269 29504.9235 -246.2663 -165.9436
ENERGY: 600000 1.4891 4.8601 3.7215 0.0000 -10539.6483 1382.0952 0.0000 0.0000 1780.1849 -7367.2975 307.3172 -9147.4824 -7402.7416 300.9824 -139.1563 -145.5603 29890.5717 -173.4339 -115.3886
ENERGY: 900000 1.2110 4.6446 1.2862 0.0000 -10491.1639 1383.7591 0.0000 0.0000 1740.0777 -7360.1854 300.3935 -9100.2631 -7381.9581 301.4057 -51.7823 50.7976 29754.4035 -169.1874 -111.3885
ENERGY: 1200000 2.4641 1.1305 3.5643 0.0000 -10459.6134 1371.7984 0.0000 0.0000 1709.7620 -7370.8940 295.1600 -9080.6560 -7381.2111 300.6579 -278.7179 -221.7669 29694.8160 -234.4344 -172.9051
ENERGY: 1500000 1.0770 4.9917 2.8287 0.0000 -10774.6788 1550.8884 0.0000 0.0000 1756.2968 -7458.5962 303.1934 -9214.8930 -7389.1749 301.0592 902.4929 993.2463 29599.7725 -147.0933 -82.4379
TCL: Running FEP window  12: Lambda1 0.5499999999999999 Lambda2 0.6    [dLambda 0.050000000000000044]
TCL: Setting parameter firsttimestep to 0
TCL: Setting parameter alchLambda to 0.5499999999999999
Info: NONBONDED TABLE R-SQUARED SPACING: 0.0625
Info: NONBONDED TABLE SIZE: 705 POINTS
TCL: Setting parameter alchLambda2 to 0.6
Info: NONBONDED TABLE R-SQUARED SPACING: 0.0625
Info: NONBONDED TABLE SIZE: 705 POINTS
TCL: Running for 1500000 steps
ETITLE: TS BOND ANGLE DIHED IMPRP ELECT VDW BOUNDARY MISC KINETIC TOTAL TEMP POTENTIAL TOTALAVG TEMPAVG PRESSURE GPRESSURE VOLUME PRESSAVG GPRESSAVG
ENERGY: 0 1.0770 4.9917 2.8287 0.0000 -10774.0183 1551.4862 0.0000 0.0000 1755.4748 -7458.1598 303.0515 -9213.6346 -7458.1598 303.0515 935.7557 1004.5843 29599.7725 935.7557 1004.5843
ENERGY: 300000 3.0301 1.2927 2.5999 0.0000 -10566.4067 1384.8313 0.0000 0.0000 1783.5687 -7391.0841 307.9014 -9174.6527 -7435.5402 298.9387 -499.6396 -393.5018 29984.9734 106.5711 198.4058
ENERGY: 600000 2.0306 2.9829 2.7708 0.0000 -10489.2491 1382.7211 0.0000 0.0000 1711.8992 -7386.8444 295.5289 -9098.7437 -7405.9154 300.1767 -498.9126 -356.2446 30090.0349 -100.6967 -8.3278
ENERGY: 900000 4.8212 4.3232 3.6450 0.0000 -10406.0631 1319.5259 0.0000 0.0000 1712.7820 -7360.9657 295.6813 -9073.7477 -7407.9927 300.0608 -882.0842 -809.2531 30306.6036 -312.9981 -226.5924
ENERGY: 1200000 4.1427 3.6200 3.4168 0.0000 -10600.3731 1425.1780 0.0000 0.0000 1699.8255 -7464.1901 293.4446 -9164.0156 -7401.4305 299.6435 -355.2740 -230.1813 29974.3108 -254.9258 -168.8856
ENERGY: 1500000 2.1656 3.2279 2.3717 0.0000 -10589.7555 1435.5936 0.0000 0.0000 1676.1299 -7470.2667 289.3540 -9146.3965 -7398.7907 299.3606 -149.0255 -75.6407 30210.2375 -209.5176 -132.8675
TCL: Running FEP window  13: Lambda1 0.6    Lambda2 0.65   [dLambda 0.050000000000000044]
TCL: Setting parameter firsttimestep to 0
TCL: Setting parameter alchLambda to 0.6
Info: NONBONDED TABLE R-SQUARED SPACING: 0.0625
Info: NONBONDED TABLE SIZE: 705 POINTS
TCL: Setting parameter alchLambda2 to 0.65
Info: NONBONDED TABLE R-SQUARED SPACING: 0.0625
Info: NONBONDED TABLE SIZE: 705 POINTS
TCL: Running for 1500000 steps
ETITLE: TS BOND ANGLE DIHED IMPRP ELECT VDW BOUNDARY MISC KINETIC TOTAL TEMP POTENTIAL TOTALAVG TEMPAVG PRESSURE GPRESSURE VOLUME PRESSAVG GPRESSAVG
ENERGY: 0 2.1656 3.2279 2.3717 0.0000 -10589.8594 1435.2684 0.0000 0.0000 1675.2611 -7471.5647 289.2040 -9146.8258 -7471.5647 289.2040 -164.3312 -74.1520 30210.2375 -164.3312 -74.1520
ENERGY: 300000 1.5183 6.2742 3.1391 0.0000 -10545.9577 1394.6073 0.0000 0.0000 1782.0505 -7358.3685 307.6393 -9140.4189 -7398.7533 302.0784 -227.6616 -167.1345 29876.5575 -122.3944 -37.6246
ENERGY: 600000 3.7790 2.2958 1.6165 0.0000 -10464.5642 1344.6546 0.0000 0.0000 1747.6121 -7364.6061 301.6941 -9112.2182 -7388.3624 300.4571 -659.7528 -617.3418 30181.9013 -142.9498 -79.1175
ENERGY: 900000 1.8946 3.0409 4.1878 0.0000 -10623.9716 1528.1954 0.0000 0.0000 1717.6122 -7369.0407 296.5152 -9086.6529 -7386.3503 299.5705 916.0958 945.7897 29718.3036 59.4611 121.2861
ENERGY: 1200000 4.4186 3.9296 2.4035 0.0000 -10456.1444 1307.7987 0.0000 0.0000 1724.9954 -7412.5985 297.7898 -9137.5939 -7385.0989 299.3471 -928.9872 -882.4614 29924.5096 -77.4485 -15.1943
ENERGY: 1500000 1.9308 3.8555 1.3475 0.0000 -10627.1907 1468.6741 0.0000 0.0000 1772.9401 -7378.4427 306.0666 -9151.3828 -7381.9107 299.9506 695.2707 681.0945 29577.2778 82.1111 129.8833
TCL: Running FEP window  14: Lambda1 0.65   Lambda2 0.7000000000000001 [dLambda 0.050000000000000044]
TCL: Setting parameter firsttimestep to 0
TCL: Setting parameter alchLambda to 0.65
Info: NONBONDED TABLE R-SQUARED SPACING: 0.0625
Info: NONBONDED TABLE SIZE: 705 POINTS
TCL: Setting parameter alchLambda2 to 0.7000000000000001
Info: NONBONDED TABLE R-SQUARED SPACING: 0.0625
Info: NONBONDED TABLE SIZE: 705 POINTS
TCL: Running for 1500000 steps
ETITLE: TS BOND ANGLE DIHED IMPRP ELECT VDW BOUNDARY MISC KINETIC TOTAL TEMP POTENTIAL TOTALAVG TEMPAVG PRESSURE GPRESSURE VOLUME PRESSAVG GPRESSAVG
ENERGY: 0 1.9308 3.8555 1.3475 0.0000 -10627.6712 1468.3110 0.0000 0.0000 1772.0700 -7380.1564 305.9164 -9152.2264 -7380.1564 305.9164 604.7270 686.3599 29577.2778 604.7270 686.3599
ENERGY: 300000 1.1623 3.6620 2.4878 0.0000 -10457.2631 1353.0953 0.0000 0.0000 1780.8912 -7315.9646 307.4392 -9096.8558 -7379.4522 302.3024 -458.3739 -330.0568 30013.3959 -46.3561 18.2141
ENERGY: 600000 6.2331 4.3071 2.9820 0.0000 -10519.7220 1407.4452 0.0000 0.0000 1728.6240 -7370.1305 298.4162 -9098.7545 -7363.1570 303.1503 10.2546 62.1235 30015.4132 -7.3367 46.2507
ENERGY: 900000 1.9433 3.6578 4.2688 0.0000 -10605.3249 1459.9975 0.0000 0.0000 1741.7416 -7393.7160 300.6807 -9135.4576 -7374.7092 301.6330 533.4562 593.5632 29475.0262 -29.9480 22.2941
ENERGY: 1200000 2.8502 3.9414 2.3228 0.0000 -10609.6786 1415.0943 0.0000 0.0000 1706.8306 -7478.6394 294.6539 -9185.4700 -7379.8637 301.3027 44.8421 23.9890 29575.9218 -57.4354 -6.4467
ENERGY: 1500000 0.6894 2.5569 3.6102 0.0000 -10575.8511 1424.8165 0.0000 0.0000 1777.9976 -7366.1806 306.9397 -9144.1782 -7375.5366 302.0418 10.0923 44.3380 30095.2384 -76.5946 -28.3588
TCL: Running FEP window  15: Lambda1 0.7000000000000001 Lambda2 0.7500000000000001 [dLambda 0.050000000000000044]
TCL: Setting parameter firsttimestep to 0
TCL: Setting parameter alchLambda to 0.7000000000000001
Info: NONBONDED TABLE R-SQUARED SPACING: 0.0625
Info: NONBONDED TABLE SIZE: 705 POINTS
TCL: Setting parameter alchLambda2 to 0.7500000000000001
Info: NONBONDED TABLE R-SQUARED SPACING: 0.0625
Info: NONBONDED TABLE SIZE: 705 POINTS
TCL: Running for 1500000 steps
ETITLE: TS BOND ANGLE DIHED IMPRP ELECT VDW BOUNDARY MISC KINETIC TOTAL TEMP POTENTIAL TOTALAVG TEMPAVG PRESSURE GPRESSURE VOLUME PRESSAVG GPRESSAVG
ENERGY: 0 0.6894 2.5569 3.6102 0.0000 -10576.5008 1424.7972 0.0000 0.0000 1777.1243 -7367.7229 306.7889 -9144.8472 -7367.7229 306.7889 -35.5001 49.6126 30095.2384 -35.5001 49.6126
ENERGY: 300000 1.7327 1.9441 1.9117 0.0000 -10581.6522 1443.7695 0.0000 0.0000 1780.6243 -7351.6699 307.3931 -9132.2942 -7375.4435 304.4131 93.2233 192.9336 29950.6132 313.2610 384.8634
ENERGY: 600000 4.7041 5.5467 2.7352 0.0000 -10606.6444 1420.6595 0.0000 0.0000 1759.1288 -7413.8701 303.6823 -9172.9989 -7371.8998 302.2267 -171.5122 -64.1867 29772.4332 124.5330 184.9184
ENERGY: 900000 5.8224 3.9528 2.3083 0.0000 -10560.6906 1365.5454 0.0000 0.0000 1648.7405 -7534.3212 284.6257 -9183.0617 -7383.5615 299.7764 -772.5885 -678.2462 29905.6498 -3.4303 66.2607
ENERGY: 1200000 3.9191 4.6001 3.8900 0.0000 -10603.5114 1425.4223 0.0000 0.0000 1764.5385 -7401.1415 304.6162 -9165.6800 -7391.4544 299.9136 -39.1966 -6.9635 30126.6742 1.5356 67.7624
ENERGY: 1500000 2.7457 2.3254 3.4105 0.0000 -10530.7104 1400.2081 0.0000 0.0000 1686.5342 -7435.4865 291.1501 -9122.0208 -7397.1284 299.1769 -302.6898 -198.0274 30083.3108 33.5041 99.4699
TCL: Running FEP window  16: Lambda1 0.7500000000000001 Lambda2 0.8000000000000002 [dLambda 0.050000000000000044]
TCL: Setting parameter firsttimestep to 0
TCL: Setting parameter alchLambda to 0.7500000000000001
Info: NONBONDED TABLE R-SQUARED SPACING: 0.0625
Info: NONBONDED TABLE SIZE: 705 POINTS
TCL: Setting parameter alchLambda2 to 0.8000000000000002
Info: NONBONDED TABLE R-SQUARED SPACING: 0.0625
Info: NONBONDED TABLE SIZE: 705 POINTS
TCL: Running for 1500000 steps
ETITLE: TS BOND ANGLE DIHED IMPRP ELECT VDW BOUNDARY MISC KINETIC TOTAL TEMP POTENTIAL TOTALAVG TEMPAVG PRESSURE GPRESSURE VOLUME PRESSAVG GPRESSAVG
ENERGY: 0 2.7457 2.3254 3.4105 0.0000 -10533.6142 1403.8653 0.0000 0.0000 1685.6694 -7435.5980 291.0008 -9121.2674 -7435.5980 291.0008 -247.3428 -162.6648 30083.3108 -247.3428 -162.6648
ENERGY: 300000 3.5643 3.2110 3.0034 0.0000 -10435.1275 1326.2175 0.0000 0.0000 1763.2318 -7335.8996 304.3906 -9099.1313 -7408.7256 299.5452 -819.7016 -771.0465 30442.6156 -370.6136 -301.8668
ENERGY: 600000 1.6768 2.5615 2.2707 0.0000 -10536.5430 1413.6854 0.0000 0.0000 1675.7709 -7440.5777 289.2920 -9116.3486 -7403.5650 298.0899 341.9476 378.3490 29701.1720 -156.9955 -74.9110
ENERGY: 900000 4.2112 5.0598 4.5454 0.0000 -10702.9409 1484.3157 0.0000 0.0000 1756.1769 -7448.6318 303.1727 -9204.8087 -7397.6857 299.6334 321.5105 404.2573 29654.4400 -79.7214 -9.3702
ENERGY: 1200000 3.5839 5.4874 7.1762 0.0000 -10621.7983 1478.0902 0.0000 0.0000 1754.3457 -7373.1150 302.8566 -9127.4606 -7385.7121 299.7168 366.3375 399.9279 29860.8914 -62.4710 2.4577
ENERGY: 1500000 0.4216 3.1215 2.7395 0.0000 -10597.0629 1440.7174 0.0000 0.0000 1754.5298 -7395.5331 302.8884 -9150.0629 -7395.6555 299.3904 -5.7975 157.9631 29892.8842 -109.2345 -30.7420
TCL: Running FEP window  17: Lambda1 0.8000000000000002 Lambda2 0.8500000000000002 [dLambda 0.050000000000000044]
TCL: Setting parameter firsttimestep to 0
TCL: Setting parameter alchLambda to 0.8000000000000002
Info: NONBONDED TABLE R-SQUARED SPACING: 0.0625
Info: NONBONDED TABLE SIZE: 705 POINTS
TCL: Setting parameter alchLambda2 to 0.8500000000000002
Info: NONBONDED TABLE R-SQUARED SPACING: 0.0625
Info: NONBONDED TABLE SIZE: 705 POINTS
TCL: Running for 1500000 steps
ETITLE: TS BOND ANGLE DIHED IMPRP ELECT VDW BOUNDARY MISC KINETIC TOTAL TEMP POTENTIAL TOTALAVG TEMPAVG PRESSURE GPRESSURE VOLUME PRESSAVG GPRESSAVG
ENERGY: 0 0.4215 3.1216 2.7395 0.0000 -10597.8931 1440.6164 0.0000 0.0000 1753.6609 -7397.3332 302.7384 -9150.9942 -7397.3332 302.7384 76.1839 163.6483 29892.8842 76.1839 163.6483
ENERGY: 300000 2.1050 3.9879 2.6774 0.0000 -10615.1214 1446.7638 0.0000 0.0000 1704.8684 -7454.7189 294.3152 -9159.5873 -7432.6928 301.5705 -277.8555 -217.7355 30358.4405 -38.8809 41.5754
ENERGY: 600000 0.6290 2.0626 1.4265 0.0000 -10554.5427 1425.3646 0.0000 0.0000 1686.6899 -7438.3701 291.1770 -9125.0600 -7426.9968 300.7891 128.1510 105.9380 29975.7813 79.9159 145.3916
ENERGY: 900000 3.3272 3.2500 2.1731 0.0000 -10662.2943 1479.5841 0.0000 0.0000 1759.6764 -7414.2835 303.7768 -9173.9600 -7430.9960 299.9039 169.6812 210.5241 30211.9035 -81.4505 -1.5592
ENERGY: 1200000 1.9266 3.0218 3.7347 0.0000 -10473.3448 1367.7573 0.0000 0.0000 1757.3225 -7339.5818 303.3705 -9096.9043 -7424.7045 299.0658 -280.6806 -266.5259 30102.2473 -112.9365 -40.7946
ENERGY: 1500000 3.7815 6.5486 3.8078 0.0000 -10449.6130 1346.1765 0.0000 0.0000 1748.9379 -7340.3606 301.9230 -9089.2986 -7415.0651 299.2238 -543.7114 -531.6977 30174.1311 -183.6703 -117.4013
TCL: Running FEP window  18: Lambda1 0.8500000000000002 Lambda2 0.9000000000000002 [dLambda 0.050000000000000044]
TCL: Setting parameter firsttimestep to 0
TCL: Setting parameter alchLambda to 0.8500000000000002
Info: NONBONDED TABLE R-SQUARED SPACING: 0.0625
Info: NONBONDED TABLE SIZE: 705 POINTS
TCL: Setting parameter alchLambda2 to 0.9000000000000002
Info: NONBONDED TABLE R-SQUARED SPACING: 0.0625
Info: NONBONDED TABLE SIZE: 705 POINTS
TCL: Running for 1500000 steps
ETITLE: TS BOND ANGLE DIHED IMPRP ELECT VDW BOUNDARY MISC KINETIC TOTAL TEMP POTENTIAL TOTALAVG TEMPAVG PRESSURE GPRESSURE VOLUME PRESSAVG GPRESSAVG
ENERGY: 0 3.7815 6.5486 3.8078 0.0000 -10451.0419 1346.5687 0.0000 0.0000 1748.0788 -7342.2564 301.7747 -9090.3353 -7342.2564 301.7747 -606.1576 -521.8346 30174.1311 -606.1576 -521.8346
ENERGY: 300000 4.1427 2.2830 1.3542 0.0000 -10659.3620 1457.6191 0.0000 0.0000 1748.8049 -7445.1582 301.9000 -9193.9631 -7375.3293 302.0396 285.1542 399.2240 29741.1812 62.3398 144.7661
ENERGY: 600000 2.1615 3.2231 3.2037 0.0000 -10691.6494 1467.3675 0.0000 0.0000 1698.1977 -7517.4960 293.1636 -9215.6936 -7405.0091 300.3764 -76.6836 -21.7365 30058.5009 -75.0475 0.8633
ENERGY: 900000 3.0611 1.7735 1.1208 0.0000 -10566.9606 1424.2703 0.0000 0.0000 1762.3724 -7374.3624 304.2422 -9136.7348 -7390.4331 301.5177 145.5527 193.9822 29951.3945 20.5824 86.8687
ENERGY: 1200000 2.9316 3.4589 1.6499 0.0000 -10554.1039 1387.2721 0.0000 0.0000 1750.8392 -7407.9522 302.2512 -9158.7913 -7381.9575 302.8936 -252.1951 -198.3396 29800.6235 48.4706 116.2098
ENERGY: 1500000 1.8703 2.1436 2.7710 0.0000 -10490.6150 1364.8494 0.0000 0.0000 1769.1671 -7349.8136 305.4152 -9118.9807 -7380.2062 303.0010 163.3055 197.3510 29254.4388 37.4032 98.5162
TCL: Running FEP window  19: Lambda1 0.9000000000000002 Lambda2 0.9500000000000003 [dLambda 0.050000000000000044]
TCL: Setting parameter firsttimestep to 0
TCL: Setting parameter alchLambda to 0.9000000000000002
Info: NONBONDED TABLE R-SQUARED SPACING: 0.0625
Info: NONBONDED TABLE SIZE: 705 POINTS
TCL: Setting parameter alchLambda2 to 0.9500000000000003
Info: NONBONDED TABLE R-SQUARED SPACING: 0.0625
Info: NONBONDED TABLE SIZE: 705 POINTS
TCL: Running for 1500000 steps
ETITLE: TS BOND ANGLE DIHED IMPRP ELECT VDW BOUNDARY MISC KINETIC TOTAL TEMP POTENTIAL TOTALAVG TEMPAVG PRESSURE GPRESSURE VOLUME PRESSAVG GPRESSAVG
ENERGY: 0 1.8703 2.1436 2.7710 0.0000 -10492.2118 1366.6366 0.0000 0.0000 1768.3250 -7350.4653 305.2698 -9118.7903 -7350.4653 305.2698 145.4556 220.9074 29254.4388 145.4556 220.9074
ENERGY: 300000 4.9265 1.6786 4.3723 0.0000 -10510.6530 1351.6621 0.0000 0.0000 1785.5969 -7362.4166 308.2515 -9148.0135 -7355.1876 305.3928 -1019.0328 -958.1390 30515.2213 -423.0029 -358.6818
ENERGY: 600000 1.8853 3.9724 3.1444 0.0000 -10573.7775 1427.0614 0.0000 0.0000 1723.1302 -7414.5839 297.4678 -9137.7141 -7369.3896 301.5883 -211.0115 -130.1190 30212.4421 -451.4334 -377.3223
ENERGY: 900000 2.5542 5.3167 6.6188 0.0000 -10618.5308 1453.2585 0.0000 0.0000 1745.9630 -7404.8196 301.4094 -9150.7826 -7399.0439 300.8238 349.5285 337.8268 30026.9276 -317.3390 -249.0740
ENERGY: 1200000 1.5317 3.0854 2.9356 0.0000 -10506.6195 1426.4828 0.0000 0.0000 1725.6968 -7346.8871 297.9109 -9072.5839 -7393.1135 300.6889 230.5156 344.9144 29916.3654 -244.8210 -177.0488
ENERGY: 1500000 2.3093 2.3102 2.8286 0.0000 -10522.8461 1372.7649 0.0000 0.0000 1663.1414 -7479.4918 287.1118 -9142.6332 -7406.3112 299.6058 -530.8440 -485.8407 30048.3800 -218.7032 -152.6071
TCL: Running FEP window  20: Lambda1 0.9500000000000003 Lambda2 1.0    [dLambda 0.04999999999999971]
TCL: Setting parameter firsttimestep to 0
TCL: Setting parameter alchLambda to 0.9500000000000003
Info: NONBONDED TABLE R-SQUARED SPACING: 0.0625
Info: NONBONDED TABLE SIZE: 705 POINTS
TCL: Setting parameter alchLambda2 to 1.0
Info: NONBONDED TABLE R-SQUARED SPACING: 0.0625
Info: NONBONDED TABLE SIZE: 705 POINTS
TCL: Running for 1500000 steps
ETITLE: TS BOND ANGLE DIHED IMPRP ELECT VDW BOUNDARY MISC KINETIC TOTAL TEMP POTENTIAL TOTALAVG TEMPAVG PRESSURE GPRESSURE VOLUME PRESSAVG GPRESSAVG
ENERGY: 0 2.3093 2.3102 2.8286 0.0000 -10523.7349 1373.0971 0.0000 0.0000 1662.2611 -7480.9287 286.9598 -9143.1898 -7480.9287 286.9598 -550.0910 -473.3492 30048.3800 -550.0910 -473.3492
ENERGY: 300000 5.6194 3.1446 2.1787 0.0000 -10399.2398 1365.9743 0.0000 0.0000 1755.6952 -7266.6275 303.0895 -9022.3227 -7387.2929 297.1264 -143.2313 -86.8341 30064.4687 -511.5999 -441.7685
ENERGY: 600000 3.8022 3.1925 4.0878 0.0000 -10504.1618 1340.3008 0.0000 0.0000 1765.2691 -7387.5094 304.7423 -9152.7785 -7371.0707 300.0773 -929.4817 -831.6382 30442.8180 -602.2894 -537.2729
ENERGY: 900000 1.7062 1.0108 2.8216 0.0000 -10593.8931 1391.2388 0.0000 0.0000 1681.3257 -7515.7901 290.2510 -9197.1158 -7386.6213 299.6211 -321.0156 -256.4463 29651.6101 -404.4887 -346.5184
ENERGY: 1200000 1.2023 3.7110 3.0414 0.0000 -10749.9084 1552.3335 0.0000 0.0000 1752.1415 -7437.4786 302.4761 -9189.6202 -7379.3101 300.4446 1184.8432 1221.0012 29509.9450 -260.0326 -210.7099
ENERGY: 1500000 1.5439 2.0162 1.9732 0.0000 -10380.0198 1314.7923 0.0000 0.0000 1735.9046 -7323.7896 299.6731 -9059.6942 -7383.5884 300.3288 -684.7969 -557.5695 30207.4880 -283.4470 -228.7754
TCL: Exiting due to exit command.
