Info: SIMULATION PARAMETERS:
Info: TIMESTEP               2
Info: NUMBER OF STEPS        0
Info: STEPS PER CYCLE        10
Info: PERIODIC CELL BASIS 1  31.8744 0 0
Info: PERIODIC CELL BASIS 2  0 30.2719 0
Info: PERIODIC CELL BASIS 3  0 0 31.3841
Info: PERIODIC CELL CENTER   0 0 0
Info: WRAPPING WATERS AROUND PERIODIC BOUNDARIES ON OUTPUT.
Info: WRAPPING ALL CLUSTERS AROUND PERIODIC BOUNDARIES ON OUTPUT.
Info: FIRST LDB TIMESTEP     50
Info: LAST LDB TIMESTEP     -1
Info: HOM BACKGROUND SCALING 1
Info: PME BACKGROUND SCALING 1
Info: MIN ATOMS PER PATCH    40
Info: EMPTY PATCH LOAD       40 ATOMS
Info: VELOCITY FILE          mobley_7015518_equil.vel
Info: CENTER OF MASS MOVING INITIALLY? NO
Info: DIELECTRIC             1
Info: EXCLUDE                SCALED ONE-FOUR
Info: 1-4 ELECTROSTATICS SCALED BY 0.833333
Info: MODIFIED 1-4 VDW PARAMETERS WILL BE USED
Info: DCD FILENAME           mobley_7015518_prod.dcd
Info: DCD FREQUENCY          100000
Info: DCD FIRST STEP         100000
Info: DCD FILE WILL CONTAIN UNIT CELL DATA
Info: XST FILENAME           mobley_7015518_prod.xst
Info: XST FREQUENCY          100000
Info: NO VELOCITY DCD OUTPUT
Info: NO FORCE DCD OUTPUT
Info: OUTPUT FILENAME        mobley_7015518_prod
Info: BINARY OUTPUT FILES WILL BE USED
Info: RESTART FILENAME       mobley_7015518_prod.restart
Info: RESTART FREQUENCY      100000
Info: BINARY RESTART FILES WILL BE USED
Info: CUTOFF                 9
Info: PAIRLIST DISTANCE      11
Info: PAIRLIST SHRINK RATE   0.01
Info: PAIRLIST GROW RATE     0.01
Info: PAIRLIST TRIGGER       0.3
Info: PAIRLISTS PER CYCLE    2
Info: PAIRLISTS ENABLED
Info: MARGIN                 2
Info: HYDROGEN GROUP CUTOFF  2.5
Info: PATCH DIMENSION        15.5
Info: ENERGY OUTPUT STEPS    100000
Info: ENERGY EVALUATION STEPS    100000
Info: OUTPUT ENERGY PRECISION 4
Info: CROSSTERM ENERGY INCLUDED IN DIHEDRAL
Info: TIMING OUTPUT STEPS    1000000
Info: PRESSURE OUTPUT STEPS  100000
Info: ALCHEMICAL FEP ON
Info: FEP CURRENT LAMBDA VALUE     1
Info: FEP COMPARISON LAMBDA VALUE  0.95
Info: FEP INTRA-ALCHEMICAL NON-BONDED INTERACTIONS WILL BE RETAINED
Info: FEP INTRA-ALCHEMICAL BONDED INTERACTIONS WILL BE RETAINED
Info: FEP VDW SHIFTING COEFFICIENT 5
Info: FEP ELEC. ACTIVE FOR ANNIHILATED PARTICLES BETWEEN LAMBDA = 0 AND LAMBDA = 0.5
Info: FEP ELEC. ACTIVE FOR EXNIHILATED PARTICLES BETWEEN LAMBDA = 0.5 AND LAMBDA = 1
Info: FEP VDW ACTIVE FOR ANNIHILATED PARTICLES BETWEEN LAMBDA = 0 AND LAMBDA = 1
Info: FEP VDW ACTIVE FOR EXNIHILATED PARTICLES BETWEEN LAMBDA = 0 AND LAMBDA = 1
Info: FEP BOND ACTIVE FOR ANNIHILATED PARTICLES BETWEEN LAMBDA = 1 AND LAMBDA = 1
Info: FEP BOND ACTIVE FOR EXNIHILATED PARTICLES BETWEEN LAMBDA = 0 AND LAMBDA = 0
Info: LANGEVIN DYNAMICS ACTIVE
Info: LANGEVIN TEMPERATURE   300
Info: LANGEVIN USING BBK INTEGRATOR
Info: LANGEVIN DAMPING COEFFICIENT IS 1 INVERSE PS
Info: LANGEVIN DYNAMICS APPLIED TO HYDROGENS
Info: LANGEVIN PISTON PRESSURE CONTROL ACTIVE
Info:        TARGET PRESSURE IS 1.01325 BAR
Info:     OSCILLATION PERIOD IS 50 FS
Info:             DECAY TIME IS 25 FS
Info:     PISTON TEMPERATURE IS 300 K
Info:       PRESSURE CONTROL IS GROUP-BASED
Info:    INITIAL STRAIN RATE IS -0.000139241 -0.000139241 -0.000139241
Info:       CELL FLUCTUATION IS ISOTROPIC
Info: PARTICLE MESH EWALD (PME) ACTIVE
Info: PME TOLERANCE               1e-06
Info: PME EWALD COEFFICIENT       0.348832
Info: PME INTERPOLATION ORDER     4
Info: PME GRID DIMENSIONS         32 32 32
Info: PME MAXIMUM GRID SPACING    1
Info: PME CALCULATION WILL BE PERFORMED ON GPU
Info: FULL ELECTROSTATIC EVALUATION FREQUENCY      2
Info: USING VERLET I (r-RESPA) MTS SCHEME.
Info: C1 SPLITTING OF LONG RANGE ELECTROSTATICS
Info: PLACING ATOMS IN PATCHES BY HYDROGEN GROUPS
Info: RIGID BONDS TO HYDROGEN : ALL
Info:         ERROR TOLERANCE : 1e-08
Info:          MAX ITERATIONS : 100
Info: RIGID WATER USING SETTLE ALGORITHM
Info: RANDOM NUMBER SEED     1742526226
Info: USE HYDROGEN BONDS?    NO
Info: Using AMBER format force field!
Info: AMBER PARM FILE        mobley_7015518.prmtop
Info: COORDINATE PDB         mobley_7015518.pdb
Info: Exclusions will be read from PARM file!
Info: SCNB (VDW SCALING)     2
Info: USING ARITHMETIC MEAN TO COMBINE L-J SIGMA PARAMETERS
Info: BINARY COORDINATES     mobley_7015518_equil.coor
Info: SUMMARY OF PARAMETERS:
Info: 4 BONDS
Info: 3 ANGLES
Info:   3 HARMONIC
Info:   0 COSINE-BASED
Info: 1 DIHEDRAL
Info: 0 IMPROPER
Info: 0 CROSSTERM
Info: 0 VDW
Info: 15 VDW_PAIRS
Info: 0 NBTHOLE_PAIRS
Info: To read alchdata from file: mobley_7015518.pdb
Info: To read alchflag data from column: 5
Info: STRUCTURE SUMMARY:
Info: 3000 ATOMS
Info: 2999 BONDS
Info: 13 ANGLES
Info: 6 DIHEDRALS
Info: 0 IMPROPERS
Info: 0 CROSSTERMS
Info: 3018 EXCLUSIONS
Info: 2997 RIGID BONDS
Info: ALCH: 0 ATOMS TO DISAPPEAR IN FINAL STATE
Info: ALCH: 9 ATOMS TO APPEAR IN FINAL STATE
Info: 6003 DEGREES OF FREEDOM
Info: 1000 HYDROGEN GROUPS
Info: 4 ATOMS IN LARGEST HYDROGEN GROUP
Info: 1000 MIGRATION GROUPS
Info: 4 ATOMS IN LARGEST MIGRATION GROUP
Info: TOTAL MASS = 18008 amu
Info: TOTAL CHARGE = 9.99942e-05 e
Info: MASS DENSITY = 0.987491 g/cm^3
Info: ATOM DENSITY = 0.0990671 atoms/A^3
Info: ADDED 0 IMPLICIT EXCLUSIONS
Info: NONBONDED TABLE R-SQUARED SPACING: 0.0625
Info: NONBONDED TABLE SIZE: 705 POINTS
Info: REMOVING COM VELOCITY -0.188645 0.254891 -0.0308454
Info: Use 3D box decompostion in PME FFT.
Info: Updated CUDA force table with 4096 elements.
Info: Updated CUDA LJ table with 5 x 5 elements.
Info: Found 12 unique exclusion lists needing 16 bytes
TCL: Running for 1500000 steps
ETITLE: TS BOND ANGLE DIHED IMPRP ELECT VDW BOUNDARY MISC KINETIC TOTAL TEMP POTENTIAL TOTALAVG TEMPAVG PRESSURE GPRESSURE VOLUME PRESSAVG GPRESSAVG
ENERGY: 0 0.3269 1.9600 0.1604 0.0000 -10874.6503 1426.7648 0.0000 0.0000 1792.9425 -7652.4957 300.5996 -9445.4382 -7652.4957 300.5996 24.8765 105.2248 30282.5126 24.8765 105.2248
ENERGY: 300000 0.3451 4.0594 0.7301 0.0000 -10792.9088 1366.9324 0.0000 0.0000 1770.7789 -7650.0630 296.8837 -9420.8419 -7650.3588 299.0321 -742.2077 -646.1484 30959.0846 -297.4272 -208.8604
ENERGY: 600000 1.3688 2.6379 0.1935 0.0000 -10912.6456 1439.5659 0.0000 0.0000 1811.7666 -7657.1129 303.7556 -9468.8795 -7631.4019 301.2333 -253.3331 -205.2458 30693.8222 -389.8187 -313.7084
ENERGY: 900000 0.9878 1.8686 0.0601 0.0000 -10767.5616 1393.4464 0.0000 0.0000 1816.3944 -7554.8045 304.5315 -9371.1988 -7624.1042 300.5494 -311.1242 -231.2781 30739.4366 -301.5019 -224.6600
ENERGY: 1200000 0.0147 2.9568 1.5392 0.0000 -10847.8434 1457.3610 0.0000 0.0000 1789.2093 -7596.7625 299.9737 -9385.9717 -7628.3275 299.3609 -31.5557 -10.1710 31055.7322 -225.3756 -160.8804
ENERGY: 1500000 1.2624 2.1704 2.2510 0.0000 -10848.2067 1397.7396 0.0000 0.0000 1779.2123 -7665.5709 298.2976 -9444.7832 -7634.2068 299.2407 -984.6441 -922.4483 31771.0376 -212.2301 -156.5525
TCL: Running FEP window   2: Lambda1 0.95   Lambda2 0.8999999999999999 [dLambda -0.050000000000000044]
TCL: Setting parameter firsttimestep to 0
TCL: Setting parameter alchLambda to 0.95
Info: NONBONDED TABLE R-SQUARED SPACING: 0.0625
Info: NONBONDED TABLE SIZE: 705 POINTS
TCL: Setting parameter alchLambda2 to 0.8999999999999999
Info: NONBONDED TABLE R-SQUARED SPACING: 0.0625
Info: NONBONDED TABLE SIZE: 705 POINTS
TCL: Running for 1500000 steps
ETITLE: TS BOND ANGLE DIHED IMPRP ELECT VDW BOUNDARY MISC KINETIC TOTAL TEMP POTENTIAL TOTALAVG TEMPAVG PRESSURE GPRESSURE VOLUME PRESSAVG GPRESSAVG
ENERGY: 0 1.2624 2.1704 2.2510 0.0000 -10847.5514 1397.8428 0.0000 0.0000 1778.2789 -7665.7459 298.1412 -9444.0248 -7665.7459 298.1412 -1013.2001 -927.1391 31771.0376 -1013.2001 -927.1391
ENERGY: 300000 0.9017 4.5258 0.1759 0.0000 -10809.6916 1366.7076 0.0000 0.0000 1818.3297 -7619.0508 304.8560 -9437.3805 -7608.5076 301.3476 -832.5763 -833.5121 31216.2166 -421.2366 -386.7157
ENERGY: 600000 0.7890 2.5147 0.3692 0.0000 -10875.7298 1469.2181 0.0000 0.0000 1784.1723 -7618.6664 299.1292 -9402.8387 -7645.3115 300.3515 10.1288 22.4906 31076.2271 -92.5928 -46.6299
ENERGY: 900000 0.0203 2.8985 0.3421 0.0000 -10913.3116 1476.7988 0.0000 0.0000 1753.9620 -7679.2899 294.0642 -9433.2519 -7639.9888 299.2974 73.7107 98.2417 30846.8397 -79.4407 -22.7305
ENERGY: 1200000 0.9279 2.2742 0.8255 0.0000 -10965.2494 1507.6598 0.0000 0.0000 1768.5294 -7685.0326 296.5066 -9453.5620 -7649.1121 298.0837 397.7128 467.9594 30495.5283 -85.7756 -27.4335
ENERGY: 1500000 0.5464 3.9067 0.1850 0.0000 -10885.8179 1464.5673 0.0000 0.0000 1756.0089 -7660.6035 294.4074 -9416.6125 -7639.1359 298.9766 -62.8559 38.6086 30884.5570 -42.6519 18.6918
TCL: Running FEP window   3: Lambda1 0.8999999999999999 Lambda2 0.8499999999999999 [dLambda -0.050000000000000044]
TCL: Setting parameter firsttimestep to 0
TCL: Setting parameter alchLambda to 0.8999999999999999
Info: NONBONDED TABLE R-SQUARED SPACING: 0.0625
Info: NONBONDED TABLE SIZE: 705 POINTS
TCL: Setting parameter alchLambda2 to 0.8499999999999999
Info: NONBONDED TABLE R-SQUARED SPACING: 0.0625
Info: NONBONDED TABLE SIZE: 705 POINTS
TCL: Running for 1500000 steps
ETITLE: TS BOND ANGLE DIHED IMPRP ELECT VDW BOUNDARY MISC KINETIC TOTAL TEMP POTENTIAL TOTALAVG TEMPAVG PRESSURE GPRESSURE VOLUME PRESSAVG GPRESSAVG
ENERGY: 0 0.5464 3.9067 0.1850 0.0000 -10885.5011 1464.8155 0.0000 0.0000 1755.0935 -7660.9540 294.2539 -9416.0475 -7660.9540 294.2539 -54.8652 36.0859 30884.5570 -54.8652 36.0859
ENERGY: 300000 0.1327 2.9487 0.8421 0.0000 -10950.5041 1511.7338 0.0000 0.0000 1793.1292 -7641.7175 300.6309 -9434.8468 -7673.3641 296.3235 311.8009 366.2745 30861.3259 10.2785 98.4099
ENERGY: 600000 0.0652 2.1750 0.2327 0.0000 -10892.6557 1408.7985 0.0000 0.0000 1784.1978 -7697.1865 299.1335 -9481.3843 -7663.1481 297.2466 -485.5868 -379.4051 30693.2350 -113.4382 -34.0980
ENERGY: 900000 0.1400 2.4940 0.0593 0.0000 -10749.2879 1398.3456 0.0000 0.0000 1779.6114 -7568.6375 298.3646 -9348.2490 -7647.2465 298.3449 -435.6533 -405.7620 31347.6986 -235.5016 -171.7127
ENERGY: 1200000 2.2121 3.7023 1.4786 0.0000 -10969.8158 1458.8551 0.0000 0.0000 1799.0482 -7704.5195 301.6233 -9503.5677 -7651.8628 298.4405 -224.4440 -179.0286 30957.9707 -183.0758 -120.5543
ENERGY: 1500000 0.1523 3.5719 0.2392 0.0000 -10901.2241 1491.6629 0.0000 0.0000 1788.8266 -7616.7711 299.9095 -9405.5977 -7643.9558 299.5019 278.5047 345.1303 30752.1881 -99.3487 -39.9960
TCL: Running FEP window   4: Lambda1 0.8499999999999999 Lambda2 0.7999999999999998 [dLambda -0.050000000000000044]
TCL: Setting parameter firsttimestep to 0
TCL: Setting parameter alchLambda to 0.8499999999999999
Info: NONBONDED TABLE R-SQUARED SPACING: 0.0625
Info: NONBONDED TABLE SIZE: 705 POINTS
TCL: Setting parameter alchLambda2 to 0.7999999999999998
Info: NONBONDED TABLE R-SQUARED SPACING: 0.0625
Info: NONBONDED TABLE SIZE: 705 POINTS
TCL: Running for 1500000 steps
ETITLE: TS BOND ANGLE DIHED IMPRP ELECT VDW BOUNDARY MISC KINETIC TOTAL TEMP POTENTIAL TOTALAVG TEMPAVG PRESSURE GPRESSURE VOLUME PRESSAVG GPRESSAVG
ENERGY: 0 0.1523 3.5719 0.2392 0.0000 -10900.8520 1491.9615 0.0000 0.0000 1787.9725 -7616.9545 299.7664 -9404.9271 -7616.9545 299.7664 263.6959 341.9543 30752.1881 263.6959 341.9543
ENERGY: 300000 0.9885 5.6333 0.1147 0.0000 -10767.5890 1390.7645 0.0000 0.0000 1854.1548 -7515.9332 310.8623 -9370.0880 -7571.2463 303.7665 -329.7795 -256.0565 30931.9324 160.6540 230.9698
ENERGY: 600000 0.1672 2.9788 1.8158 0.0000 -10935.7641 1507.1447 0.0000 0.0000 1771.3800 -7652.2775 296.9845 -9423.6575 -7590.1725 304.0699 397.7586 433.2348 30545.3845 114.1106 182.2254
ENERGY: 900000 0.2031 2.3583 0.1748 0.0000 -10935.1641 1463.7747 0.0000 0.0000 1802.0439 -7666.6093 302.1255 -9468.6532 -7610.6101 303.9357 -17.3990 73.9599 30407.7210 120.8187 185.3029
ENERGY: 1200000 0.2710 1.8872 0.8618 0.0000 -10977.8832 1514.0924 0.0000 0.0000 1780.0017 -7680.7691 298.4300 -9460.7707 -7619.2977 303.3549 574.4074 556.1093 30586.8364 198.4081 254.4397
ENERGY: 1500000 0.1533 1.2745 0.6548 0.0000 -10884.6945 1434.5439 0.0000 0.0000 1782.2000 -7665.8679 298.7985 -9448.0680 -7621.0343 302.7795 -350.7498 -327.5724 30994.2001 84.9331 135.5192
TCL: Running FEP window   5: Lambda1 0.7999999999999998 Lambda2 0.7499999999999998 [dLambda -0.050000000000000044]
TCL: Setting parameter firsttimestep to 0
TCL: Setting parameter alchLambda to 0.7999999999999998
Info: NONBONDED TABLE R-SQUARED SPACING: 0.0625
Info: NONBONDED TABLE SIZE: 705 POINTS
TCL: Setting parameter alchLambda2 to 0.7499999999999998
Info: NONBONDED TABLE R-SQUARED SPACING: 0.0625
Info: NONBONDED TABLE SIZE: 705 POINTS
TCL: Running for 1500000 steps
ETITLE: TS BOND ANGLE DIHED IMPRP ELECT VDW BOUNDARY MISC KINETIC TOTAL TEMP POTENTIAL TOTALAVG TEMPAVG PRESSURE GPRESSURE VOLUME PRESSAVG GPRESSAVG
ENERGY: 0 0.1533 1.2745 0.6548 0.0000 -10884.3048 1434.0783 0.0000 0.0000 1781.2793 -7666.8646 298.6442 -9448.1439 -7666.8646 298.6442 -417.6245 -336.4913 30994.2001 -417.6245 -336.4913
ENERGY: 300000 0.3770 3.9128 0.2810 0.0000 -10881.0465 1476.3758 0.0000 0.0000 1813.4857 -7586.6142 304.0438 -9400.0999 -7646.9900 301.5610 93.0904 194.8844 30928.2350 -128.6397 -57.3236
ENERGY: 600000 1.2222 5.6879 0.4640 0.0000 -10973.8519 1502.7699 0.0000 0.0000 1742.9498 -7720.7581 292.2180 -9463.7079 -7644.8970 299.4329 285.0318 318.7558 30523.1358 86.7223 169.7640
ENERGY: 900000 0.3076 1.6995 0.1686 0.0000 -10815.8843 1423.0379 0.0000 0.0000 1828.1243 -7562.5464 306.4981 -9390.6707 -7632.8038 300.3516 -102.6305 -55.1045 30652.5134 47.9416 121.4889
ENERGY: 1200000 0.4432 3.0296 0.2337 0.0000 -10978.1050 1534.5436 0.0000 0.0000 1786.7829 -7653.0720 299.5669 -9439.8549 -7633.7475 300.5507 567.0949 580.7640 30819.9718 32.1142 106.4728
ENERGY: 1500000 0.2340 4.7350 0.1168 0.0000 -10871.6321 1455.2814 0.0000 0.0000 1744.3000 -7666.9648 292.4443 -9411.2648 -7637.1280 300.1039 156.4985 210.9658 30326.9590 -2.2459 66.0792
TCL: Running FEP window   6: Lambda1 0.7499999999999998 Lambda2 0.6999999999999997 [dLambda -0.050000000000000044]
TCL: Setting parameter firsttimestep to 0
TCL: Setting parameter alchLambda to 0.7499999999999998
Info: NONBONDED TABLE R-SQUARED SPACING: 0.0625
Info: NONBONDED TABLE SIZE: 705 POINTS
TCL: Setting parameter alchLambda2 to 0.6999999999999997
Info: NONBONDED TABLE R-SQUARED SPACING: 0.0625
Info: NONBONDED TABLE SIZE: 705 POINTS
TCL: Running for 1500000 steps
ETITLE: TS BOND ANGLE DIHED IMPRP ELECT VDW BOUNDARY MISC KINETIC TOTAL TEMP POTENTIAL TOTALAVG TEMPAVG PRESSURE GPRESSURE VOLUME PRESSAVG GPRESSAVG
ENERGY: 0 0.2340 4.7350 0.1168 0.0000 -10870.8160 1454.4323 0.0000 0.0000 1743.4111 -7667.8867 292.2953 -9411.2978 -7667.8867 292.2953 95.7136 195.6369 30326.9590 95.7136 195.6369
ENERGY: 300000 0.0293 4.2152 0.4348 0.0000 -10865.5980 1419.2614 0.0000 0.0000 1765.3538 -7676.3034 295.9742 -9441.6572 -7660.5836 297.1762 -437.0331 -377.4830 30846.4390 -166.5417 -100.7433
ENERGY: 600000 0.3256 4.1544 0.5575 0.0000 -10862.7127 1384.9573 0.0000 0.0000 1793.9118 -7678.8060 300.7621 -9472.7178 -7677.7366 297.4583 -931.6712 -784.9334 30948.7500 -106.7421 -31.2074
ENERGY: 900000 0.4986 4.0440 0.6361 0.0000 -10994.9360 1560.4303 0.0000 0.0000 1783.2215 -7646.1054 298.9698 -9429.3270 -7663.4415 298.1858 615.9369 749.0685 30665.8133 2.2863 79.8904
ENERGY: 1200000 0.5701 3.1002 0.3257 0.0000 -10871.7746 1486.1999 0.0000 0.0000 1770.0180 -7611.5607 296.7561 -9381.5787 -7657.6143 297.1928 311.8255 341.8710 30654.7268 0.1363 68.8028
ENERGY: 1500000 0.5880 2.6558 0.1066 0.0000 -10862.0444 1445.1389 0.0000 0.0000 1792.6956 -7620.8594 300.5582 -9413.5550 -7650.4517 297.5986 -257.6042 -172.8086 30986.1895 5.3356 69.1502
TCL: Running FEP window   7: Lambda1 0.6999999999999997 Lambda2 0.6499999999999997 [dLambda -0.050000000000000044]
TCL: Setting parameter firsttimestep to 0
TCL: Setting parameter alchLambda to 0.6999999999999997
Info: NONBONDED TABLE R-SQUARED SPACING: 0.0625
Info: NONBONDED TABLE SIZE: 705 POINTS
TCL: Setting parameter alchLambda2 to 0.6499999999999997
Info: NONBONDED TABLE R-SQUARED SPACING: 0.0625
Info: NONBONDED TABLE SIZE: 705 POINTS
TCL: Running for 1500000 steps
ETITLE: TS BOND ANGLE DIHED IMPRP ELECT VDW BOUNDARY MISC KINETIC TOTAL TEMP POTENTIAL TOTALAVG TEMPAVG PRESSURE GPRESSURE VOLUME PRESSAVG GPRESSAVG
ENERGY: 0 0.5880 2.6558 0.1066 0.0000 -10861.9773 1445.4366 0.0000 0.0000 1791.8181 -7621.3721 300.4111 -9413.1902 -7621.3721 300.4111 -255.6838 -173.9346 30986.1895 -255.6838 -173.9346
ENERGY: 300000 1.3505 4.5590 0.0932 0.0000 -10873.7434 1476.6639 0.0000 0.0000 1755.1306 -7635.9463 294.2602 -9391.0769 -7634.9082 300.2363 -38.3221 70.6581 30820.6927 -191.4885 -97.7690
ENERGY: 600000 1.6625 2.7036 0.2900 0.0000 -10838.4560 1462.0114 0.0000 0.0000 1791.5723 -7580.2162 300.3699 -9371.7885 -7621.7314 299.7760 4.1142 104.2300 30969.4213 -235.4068 -155.0588
ENERGY: 900000 0.2363 3.7589 0.8090 0.0000 -10877.6858 1464.4200 0.0000 0.0000 1798.8663 -7609.5953 301.5928 -9408.4617 -7612.9289 300.8698 1.4651 -9.2818 30941.9039 -82.9685 -16.7145
ENERGY: 1200000 0.0021 3.2453 1.6212 0.0000 -10785.4595 1393.9319 0.0000 0.0000 1749.1619 -7637.4972 293.2595 -9386.6591 -7613.6726 300.9854 -520.5050 -432.3333 30638.5877 -167.4477 -103.1926
ENERGY: 1500000 0.2861 2.1167 0.0588 0.0000 -10876.7607 1467.8106 0.0000 0.0000 1895.0477 -7511.4408 317.7183 -9406.4885 -7623.5318 300.7687 101.5742 164.6978 30926.7490 -85.0834 -18.4833
TCL: Running FEP window   8: Lambda1 0.6499999999999997 Lambda2 0.5999999999999996 [dLambda -0.050000000000000044]
TCL: Setting parameter firsttimestep to 0
TCL: Setting parameter alchLambda to 0.6499999999999997
Info: NONBONDED TABLE R-SQUARED SPACING: 0.0625
Info: NONBONDED TABLE SIZE: 705 POINTS
TCL: Setting parameter alchLambda2 to 0.5999999999999996
Info: NONBONDED TABLE R-SQUARED SPACING: 0.0625
Info: NONBONDED TABLE SIZE: 705 POINTS
TCL: Running for 1500000 steps
ETITLE: TS BOND ANGLE DIHED IMPRP ELECT VDW BOUNDARY MISC KINETIC TOTAL TEMP POTENTIAL TOTALAVG TEMPAVG PRESSURE GPRESSURE VOLUME PRESSAVG GPRESSAVG
ENERGY: 0 0.2861 2.1167 0.0588 0.0000 -10876.3219 1467.9899 0.0000 0.0000 1894.1932 -7511.6774 317.5750 -9405.8705 -7511.6774 317.5750 88.8072 162.9626 30926.7490 88.8072 162.9626
ENERGY: 300000 0.6008 1.9641 0.3543 0.0000 -10881.9383 1442.5488 0.0000 0.0000 1799.0078 -7637.4625 301.6165 -9436.4703 -7608.1228 302.3482 -256.5860 -197.2595 30865.1390 83.9837 145.7046
ENERGY: 600000 0.1430 4.4599 0.2213 0.0000 -10933.4450 1468.5369 0.0000 0.0000 1769.7948 -7690.2891 296.7187 -9460.0839 -7611.3342 299.8884 -286.1131 -240.7777 31241.9093 -126.3234 -59.3439
ENERGY: 900000 0.0360 3.6531 0.8701 0.0000 -10970.7355 1524.1565 0.0000 0.0000 1803.7201 -7638.2996 302.4065 -9442.0197 -7620.2647 300.7684 431.9528 481.8192 30700.9562 -130.5608 -67.9401
ENERGY: 1200000 0.4884 3.7244 2.0332 0.0000 -11035.2494 1585.2059 0.0000 0.0000 1774.7267 -7669.0708 297.5456 -9443.7975 -7619.7124 300.3464 809.7672 895.5923 30691.7842 -170.0436 -108.8521
ENERGY: 1500000 0.5625 1.9447 0.8167 0.0000 -10841.9261 1376.7329 0.0000 0.0000 1819.1128 -7642.7565 304.9872 -9461.8693 -7616.9898 301.0989 -628.7212 -595.1500 30663.8829 -203.9257 -135.0368
TCL: Running FEP window   9: Lambda1 0.5999999999999996 Lambda2 0.5499999999999996 [dLambda -0.050000000000000044]
TCL: Setting parameter firsttimestep to 0
TCL: Setting parameter alchLambda to 0.5999999999999996
Info: NONBONDED TABLE R-SQUARED SPACING: 0.0625
Info: NONBONDED TABLE SIZE: 705 POINTS
TCL: Setting parameter alchLambda2 to 0.5499999999999996
Info: NONBONDED TABLE R-SQUARED SPACING: 0.0625
Info: NONBONDED TABLE SIZE: 705 POINTS
TCL: Running for 1500000 steps
ETITLE: TS BOND ANGLE DIHED IMPRP ELECT VDW BOUNDARY MISC KINETIC TOTAL TEMP POTENTIAL TOTALAVG TEMPAVG PRESSURE GPRESSURE VOLUME PRESSAVG GPRESSAVG
ENERGY: 0 0.5625 1.9447 0.8167 0.0000 -10841.9245 1376.8852 0.0000 0.0000 1818.2186 -7643.4968 304.8373 -9461.7154 -7643.4968 304.8373 -674.1678 -597.5389 30663.8829 -674.1678 -597.5389
ENERGY: 300000 0.4065 3.4369 0.3095 0.0000 -10812.1205 1386.4312 0.0000 0.0000 1748.6773 -7672.8592 293.1782 -9421.5365 -7646.7111 300.8063 -805.4035 -729.7294 30984.8963 -452.6934 -399.3259
ENERGY: 600000 0.2137 1.9541 0.5399 0.0000 -10944.8516 1464.6749 0.0000 0.0000 1854.3289 -7623.1400 310.8915 -9477.4689 -7656.7945 300.7421 -160.9594 -68.5358 30716.2833 -326.9348 -285.8046
ENERGY: 900000 0.7795 4.3333 0.3428 0.0000 -10795.8951 1399.9165 0.0000 0.0000 1758.1234 -7632.3995 294.7619 -9390.5228 -7658.6627 300.4448 -545.9473 -494.2013 30927.2261 -259.9953 -208.8667
ENERGY: 1200000 0.8207 5.3274 0.0359 0.0000 -10767.3513 1436.3391 0.0000 0.0000 1797.2236 -7527.6046 301.3174 -9324.8282 -7626.7376 300.3364 58.1532 -2.2123 30826.5671 -221.8952 -182.6785
ENERGY: 1500000 2.1418 2.8493 1.0350 0.0000 -10977.3718 1467.7248 0.0000 0.0000 1791.6801 -7711.9407 300.3880 -9503.6209 -7629.0482 300.8606 -169.6943 -29.7741 30596.7395 -240.3012 -189.5334
TCL: Running FEP window  10: Lambda1 0.5499999999999996 Lambda2 0.4999999999999996 [dLambda -0.04999999999999999]
TCL: Setting parameter firsttimestep to 0
TCL: Setting parameter alchLambda to 0.5499999999999996
Info: NONBONDED TABLE R-SQUARED SPACING: 0.0625
Info: NONBONDED TABLE SIZE: 705 POINTS
TCL: Setting parameter alchLambda2 to 0.4999999999999996
Info: NONBONDED TABLE R-SQUARED SPACING: 0.0625
Info: NONBONDED TABLE SIZE: 705 POINTS
TCL: Running for 1500000 steps
ETITLE: TS BOND ANGLE DIHED IMPRP ELECT VDW BOUNDARY MISC KINETIC TOTAL TEMP POTENTIAL TOTALAVG TEMPAVG PRESSURE GPRESSURE VOLUME PRESSAVG GPRESSAVG
ENERGY: 0 2.1418 2.8493 1.0350 0.0000 -10977.3420 1467.9670 0.0000 0.0000 1790.7651 -7712.5837 300.2345 -9503.3488 -7712.5837 300.2345 -121.7336 -32.6233 30596.7395 -121.7336 -32.6233
ENERGY: 300000 0.8026 2.7908 0.4175 0.0000 -10927.7220 1473.4589 0.0000 0.0000 1776.7220 -7673.5301 297.8801 -9450.2521 -7653.6073 299.7354 106.5815 219.3587 30471.1518 -42.3542 37.8138
ENERGY: 600000 0.0758 1.1447 0.6369 0.0000 -11002.7887 1546.5725 0.0000 0.0000 1796.8231 -7657.5357 301.2502 -9454.3588 -7647.4297 300.5169 553.2955 566.5810 30821.9085 16.3200 81.3356
ENERGY: 900000 0.4898 1.7938 0.4990 0.0000 -10842.1857 1480.4103 0.0000 0.0000 1788.5343 -7570.4585 299.8605 -9358.9927 -7647.9871 299.3346 -9.5510 67.4837 31595.8155 -34.8809 33.3357
ENERGY: 1200000 0.0788 1.1143 0.0251 0.0000 -10985.0888 1497.9840 0.0000 0.0000 1824.1927 -7661.6939 305.8389 -9485.8866 -7645.5217 299.3592 251.5310 348.6571 30452.2887 21.4464 96.7235
ENERGY: 1500000 0.7488 2.6278 1.0996 0.0000 -10835.7987 1427.6575 0.0000 0.0000 1797.8239 -7605.8411 301.4180 -9403.6650 -7625.9093 300.1845 -124.3925 -20.9772 30613.4774 -30.9813 38.3090
TCL: Running FEP window  11: Lambda1 0.4999999999999996 Lambda2 0.4499999999999996 [dLambda -0.04999999999999999]
TCL: Setting parameter firsttimestep to 0
TCL: Setting parameter alchLambda to 0.4999999999999996
Info: NONBONDED TABLE R-SQUARED SPACING: 0.0625
Info: NONBONDED TABLE SIZE: 705 POINTS
TCL: Setting parameter alchLambda2 to 0.4499999999999996
Info: NONBONDED TABLE R-SQUARED SPACING: 0.0625
Info: NONBONDED TABLE SIZE: 705 POINTS
TCL: Running for 1500000 steps
ETITLE: TS BOND ANGLE DIHED IMPRP ELECT VDW BOUNDARY MISC KINETIC TOTAL TEMP POTENTIAL TOTALAVG TEMPAVG PRESSURE GPRESSURE VOLUME PRESSAVG GPRESSAVG
ENERGY: 0 0.7488 2.6278 1.0996 0.0000 -10835.6249 1427.6572 0.0000 0.0000 1796.9504 -7606.5411 301.2716 -9403.4914 -7606.5411 301.2716 -113.9364 -23.0366 30613.4774 -113.9364 -23.0366
ENERGY: 300000 0.7623 2.3622 1.6897 0.0000 -10809.0130 1450.9282 0.0000 0.0000 1830.6005 -7522.6701 306.9132 -9353.2706 -7591.5388 303.2382 2.8784 41.4629 31143.3333 -237.6070 -183.3117
ENERGY: 600000 1.7161 2.5688 0.8740 0.0000 -10810.2490 1407.0119 0.0000 0.0000 1758.7240 -7639.3542 294.8626 -9398.0782 -7619.1880 299.2162 -545.3611 -487.9431 30858.0872 -177.2885 -120.3889
ENERGY: 900000 0.5651 5.0857 1.0841 0.0000 -10927.3267 1498.4595 0.0000 0.0000 1811.6695 -7610.4627 303.7393 -9422.1322 -7614.3811 299.8974 217.0320 300.2971 30862.7398 -147.3585 -88.0750
ENERGY: 1200000 0.0670 2.8877 0.0544 0.0000 -10879.8396 1507.6852 0.0000 0.0000 1815.1742 -7553.9711 304.3269 -9369.1453 -7606.5512 301.0352 298.1962 382.1321 31080.4389 -118.5747 -61.1689
ENERGY: 1500000 1.5491 2.0863 0.2276 0.0000 -10926.8001 1471.3675 0.0000 0.0000 1822.5970 -7628.9727 305.5714 -9451.5697 -7618.9213 300.3379 49.1277 120.0633 30708.6640 -111.7832 -50.7657
TCL: Running FEP window  12: Lambda1 0.4499999999999996 Lambda2 0.39999999999999963 [dLambda -0.04999999999999999]
TCL: Setting parameter firsttimestep to 0
TCL: Setting parameter alchLambda to 0.4499999999999996
Info: NONBONDED TABLE R-SQUARED SPACING: 0.0625
Info: NONBONDED TABLE SIZE: 705 POINTS
TCL: Setting parameter alchLambda2 to 0.39999999999999963
Info: NONBONDED TABLE R-SQUARED SPACING: 0.0625
Info: NONBONDED TABLE SIZE: 705 POINTS
TCL: Running for 1500000 steps
ETITLE: TS BOND ANGLE DIHED IMPRP ELECT VDW BOUNDARY MISC KINETIC TOTAL TEMP POTENTIAL TOTALAVG TEMPAVG PRESSURE GPRESSURE VOLUME PRESSAVG GPRESSAVG
ENERGY: 0 1.5491 2.0863 0.2276 0.0000 -10926.8002 1471.6636 0.0000 0.0000 1821.6930 -7629.5807 305.4198 -9451.2737 -7629.5807 305.4198 43.9016 120.0558 30708.6640 43.9016 120.0558
ENERGY: 300000 0.6225 2.9183 0.0518 0.0000 -10838.3156 1436.8525 0.0000 0.0000 1780.5599 -7617.3106 298.5236 -9397.8705 -7630.2393 300.2797 -579.7347 -513.7632 31529.5702 -311.3999 -272.5138
ENERGY: 600000 0.8374 6.1637 0.4323 0.0000 -10926.1226 1411.3334 0.0000 0.0000 1780.8190 -7726.5368 298.5670 -9507.3558 -7632.6146 300.9970 -520.1019 -467.7716 30346.0584 -116.1946 -72.6264
ENERGY: 900000 0.4437 3.8347 1.6676 0.0000 -10837.1726 1382.3450 0.0000 0.0000 1787.1056 -7661.7759 299.6210 -9448.8815 -7622.7275 301.4097 -676.9835 -593.6355 30738.8484 -152.7697 -98.5789
ENERGY: 1200000 0.2459 2.7703 1.1659 0.0000 -10892.4882 1426.9178 0.0000 0.0000 1791.5418 -7669.8465 300.3648 -9461.3883 -7625.3580 300.4578 -286.9168 -316.7076 30665.6737 -193.3789 -147.3559
ENERGY: 1500000 0.2590 4.8960 0.6741 0.0000 -10884.2449 1446.3068 0.0000 0.0000 1795.8213 -7636.2878 301.0823 -9432.1091 -7620.2493 300.2042 -225.6329 -193.4074 30675.0921 -159.4501 -114.1510
TCL: Running FEP window  13: Lambda1 0.39999999999999963 Lambda2 0.34999999999999964 [dLambda -0.04999999999999999]
TCL: Setting parameter firsttimestep to 0
TCL: Setting parameter alchLambda to 0.39999999999999963
Info: NONBONDED TABLE R-SQUARED SPACING: 0.0625
Info: NONBONDED TABLE SIZE: 705 POINTS
TCL: Setting parameter alchLambda2 to 0.34999999999999964
Info: NONBONDED TABLE R-SQUARED SPACING: 0.0625
Info: NONBONDED TABLE SIZE: 705 POINTS
TCL: Running for 1500000 steps
ETITLE: TS BOND ANGLE DIHED IMPRP ELECT VDW BOUNDARY MISC KINETIC TOTAL TEMP POTENTIAL TOTALAVG TEMPAVG PRESSURE GPRESSURE VOLUME PRESSAVG GPRESSAVG
ENERGY: 0 0.2590 4.8960 0.6741 0.0000 -10884.2455 1446.4214 0.0000 0.0000 1794.9465 -7637.0486 300.9356 -9431.9951 -7637.0486 300.9356 -265.9061 -196.1281 30675.0921 -265.9061 -196.1281
ENERGY: 300000 0.1951 2.6463 0.2284 0.0000 -10845.5316 1424.0043 0.0000 0.0000 1746.1141 -7672.3433 292.7485 -9418.4574 -7652.6385 297.7816 -369.6811 -349.4058 31013.8654 -322.3492 -282.2438
ENERGY: 600000 1.3375 5.0440 0.3204 0.0000 -11010.0708 1474.8742 0.0000 0.0000 1798.8516 -7729.6431 301.5903 -9528.4947 -7686.9364 296.8278 -287.7528 -192.5381 30535.4468 -335.2819 -272.7107
ENERGY: 900000 0.7597 4.7968 1.0158 0.0000 -10983.3925 1532.4360 0.0000 0.0000 1787.4485 -7656.9357 299.6785 -9444.3842 -7678.7814 298.4165 579.3767 626.6310 30494.8309 -128.6906 -72.0626
ENERGY: 1200000 0.1318 1.4813 1.7527 0.0000 -10871.8213 1442.6609 0.0000 0.0000 1819.2337 -7606.5608 305.0075 -9425.7945 -7667.3513 299.6801 -192.9967 -138.0616 30828.5454 -107.3802 -54.3293
ENERGY: 1500000 0.3696 2.3820 0.2525 0.0000 -10974.3194 1513.9190 0.0000 0.0000 1806.3589 -7651.0374 302.8490 -9457.3963 -7659.9346 300.7220 227.8680 294.0762 30859.0814 -91.6145 -27.9633
TCL: Running FEP window  14: Lambda1 0.34999999999999964 Lambda2 0.29999999999999966 [dLambda -0.04999999999999999]
TCL: Setting parameter firsttimestep to 0
TCL: Setting parameter alchLambda to 0.34999999999999964
Info: NONBONDED TABLE R-SQUARED SPACING: 0.0625
Info: NONBONDED TABLE SIZE: 705 POINTS
TCL: Setting parameter alchLambda2 to 0.29999999999999966
Info: NONBONDED TABLE R-SQUARED SPACING: 0.0625
Info: NONBONDED TABLE SIZE: 705 POINTS
TCL: Running for 1500000 steps
ETITLE: TS BOND ANGLE DIHED IMPRP ELECT VDW BOUNDARY MISC KINETIC TOTAL TEMP POTENTIAL TOTALAVG TEMPAVG PRESSURE GPRESSURE VOLUME PRESSAVG GPRESSAVG
ENERGY: 0 0.3696 2.3820 0.2525 0.0000 -10974.3192 1513.5394 0.0000 0.0000 1805.4747 -7652.3010 302.7007 -9457.7757 -7652.3010 302.7007 210.7947 289.7716 30859.0814 210.7947 289.7716
ENERGY: 300000 0.2527 5.4798 1.8576 0.0000 -11029.2231 1577.1754 0.0000 0.0000 1733.7940 -7710.6635 290.6829 -9444.4575 -7652.2588 293.7102 772.1332 801.4848 30491.3832 226.8687 278.2567
ENERGY: 600000 0.0646 3.8012 0.4117 0.0000 -10689.8697 1381.9819 0.0000 0.0000 1780.8137 -7522.7967 298.5661 -9303.6103 -7648.8148 295.4007 -560.6087 -475.1806 31405.3598 131.5231 200.6704
ENERGY: 900000 0.6202 1.6004 0.0140 0.0000 -10965.0682 1516.8562 0.0000 0.0000 1740.5924 -7705.3850 291.8227 -9445.9774 -7651.4765 296.4635 130.8365 206.1602 30987.2772 158.2204 222.8048
ENERGY: 1200000 0.8236 2.6324 0.2189 0.0000 -10972.4100 1508.1988 0.0000 0.0000 1789.5159 -7671.0203 300.0251 -9460.5362 -7646.2607 298.0781 174.0916 232.2717 30876.3597 88.2964 159.7995
ENERGY: 1500000 0.3399 1.8936 0.7100 0.0000 -10777.6396 1388.3944 0.0000 0.0000 1827.5517 -7558.7501 306.4021 -9386.3018 -7632.7693 298.7193 -578.4660 -502.9566 31065.0872 -8.3151 61.6365
TCL: Running FEP window  15: Lambda1 0.29999999999999966 Lambda2 0.24999999999999967 [dLambda -0.04999999999999999]
TCL: Setting parameter firsttimestep to 0
TCL: Setting parameter alchLambda to 0.29999999999999966
Info: NONBONDED TABLE R-SQUARED SPACING: 0.0625
Info: NONBONDED TABLE SIZE: 705 POINTS
TCL: Setting parameter alchLambda2 to 0.24999999999999967
Info: NONBONDED TABLE R-SQUARED SPACING: 0.0625
Info: NONBONDED TABLE SIZE: 705 POINTS
TCL: Running for 1500000 steps
ETITLE: TS BOND ANGLE DIHED IMPRP ELECT VDW BOUNDARY MISC KINETIC TOTAL TEMP POTENTIAL TOTALAVG TEMPAVG PRESSURE GPRESSURE VOLUME PRESSAVG GPRESSAVG
ENERGY: 0 0.3399 1.8936 0.7100 0.0000 -10777.6384 1388.6015 0.0000 0.0000 1826.6497 -7559.4438 306.2509 -9386.0935 -7559.4438 306.2509 -580.1331 -501.4443 31065.0872 -580.1331 -501.4443
ENERGY: 300000 1.2580 3.1552 0.1577 0.0000 -10895.3858 1430.4209 0.0000 0.0000 1774.8331 -7685.5608 297.5634 -9460.3939 -7599.4759 302.7012 -468.5615 -447.1890 31267.9660 -295.3049 -236.7495
ENERGY: 600000 2.6301 4.5869 0.3412 0.0000 -10881.5015 1431.7533 0.0000 0.0000 1783.8813 -7658.3087 299.0804 -9442.1900 -7590.4960 302.6144 -339.9686 -278.9907 30585.5808 -367.7904 -309.5343
ENERGY: 900000 0.5171 3.4028 1.0382 0.0000 -10917.6822 1465.1268 0.0000 0.0000 1838.1927 -7609.4046 308.1861 -9447.5973 -7596.5256 302.5990 237.9984 267.9196 30424.5626 -268.6676 -208.5169
ENERGY: 1200000 0.6109 2.4601 1.8337 0.0000 -10888.2292 1456.3591 0.0000 0.0000 1809.0270 -7617.9385 303.2963 -9426.9654 -7602.9625 302.2512 -448.9312 -358.5152 31134.0108 -171.3395 -107.9139
ENERGY: 1500000 2.8293 4.1630 1.8985 0.0000 -10882.8460 1471.1941 0.0000 0.0000 1800.7300 -7602.0312 301.9052 -9402.7612 -7601.1918 302.1481 191.8470 246.3288 30553.6460 -152.1655 -89.4116
TCL: Running FEP window  16: Lambda1 0.24999999999999967 Lambda2 0.19999999999999968 [dLambda -0.04999999999999999]
TCL: Setting parameter firsttimestep to 0
TCL: Setting parameter alchLambda to 0.24999999999999967
Info: NONBONDED TABLE R-SQUARED SPACING: 0.0625
Info: NONBONDED TABLE SIZE: 705 POINTS
TCL: Setting parameter alchLambda2 to 0.19999999999999968
Info: NONBONDED TABLE R-SQUARED SPACING: 0.0625
Info: NONBONDED TABLE SIZE: 705 POINTS
TCL: Running for 1500000 steps
ETITLE: TS BOND ANGLE DIHED IMPRP ELECT VDW BOUNDARY MISC KINETIC TOTAL TEMP POTENTIAL TOTALAVG TEMPAVG PRESSURE GPRESSURE VOLUME PRESSAVG GPRESSAVG
ENERGY: 0 2.8293 4.1630 1.8985 0.0000 -10882.8459 1471.4796 0.0000 0.0000 1799.8408 -7602.6347 301.7561 -9402.4755 -7602.6347 301.7561 156.3910 249.4281 30553.6460 156.3910 249.4281
ENERGY: 300000 0.8598 2.9775 1.3722 0.0000 -10752.6323 1430.9771 0.0000 0.0000 1782.7698 -7533.6758 298.8941 -9316.4456 -7594.4902 297.9283 -112.2152 -68.7079 31029.1164 -120.8126 -32.4312
ENERGY: 600000 1.2717 1.6763 0.4284 0.0000 -10910.9347 1476.8247 0.0000 0.0000 1826.2811 -7604.4525 306.1891 -9430.7336 -7598.3779 299.8863 72.5072 94.5632 30665.5604 81.5323 146.1166
ENERGY: 900000 0.4429 3.5201 0.3655 0.0000 -10938.4640 1499.6415 0.0000 0.0000 1761.3430 -7673.1510 295.3017 -9434.4939 -7606.4054 300.1952 78.8887 192.8227 30826.8608 28.5001 104.0017
ENERGY: 1200000 0.6645 3.1426 0.1615 0.0000 -11021.7645 1487.5303 0.0000 0.0000 1808.8969 -7721.3688 303.2745 -9530.2656 -7622.4964 300.0332 -245.2407 -141.7324 30638.8119 46.6935 117.0241
ENERGY: 1500000 0.2241 5.8521 0.5280 0.0000 -10766.3301 1419.6414 0.0000 0.0000 1848.5878 -7491.4966 309.9289 -9340.0844 -7612.3152 300.3888 -88.2842 -69.4861 30906.7792 62.9703 126.4400
TCL: Running FEP window  17: Lambda1 0.19999999999999968 Lambda2 0.1499999999999997 [dLambda -0.04999999999999999]
TCL: Setting parameter firsttimestep to 0
TCL: Setting parameter alchLambda to 0.19999999999999968
Info: NONBONDED TABLE R-SQUARED SPACING: 0.0625
Info: NONBONDED TABLE SIZE: 705 POINTS
TCL: Setting parameter alchLambda2 to 0.1499999999999997
Info: NONBONDED TABLE R-SQUARED SPACING: 0.0625
Info: NONBONDED TABLE SIZE: 705 POINTS
TCL: Running for 1500000 steps
ETITLE: TS BOND ANGLE DIHED IMPRP ELECT VDW BOUNDARY MISC KINETIC TOTAL TEMP POTENTIAL TOTALAVG TEMPAVG PRESSURE GPRESSURE VOLUME PRESSAVG GPRESSAVG
ENERGY: 0 0.2241 5.8521 0.5280 0.0000 -10766.3324 1419.5102 0.0000 0.0000 1847.6935 -7492.5244 309.7790 -9340.2179 -7492.5244 309.7790 -155.7146 -71.3997 30906.7792 -155.7146 -71.3997
ENERGY: 300000 0.8007 3.5409 0.8434 0.0000 -10723.3745 1383.1471 0.0000 0.0000 1751.7742 -7583.2684 293.6974 -9335.0426 -7574.4721 301.0691 -771.0676 -647.6147 31266.3331 -28.5740 58.0100
ENERGY: 600000 1.3843 1.0087 0.8406 0.0000 -10930.1863 1485.2608 0.0000 0.0000 1811.1618 -7630.5301 303.6542 -9441.6919 -7579.6631 302.5906 171.5662 219.4652 30639.1417 173.8538 238.4234
ENERGY: 900000 0.1891 2.7954 1.6307 0.0000 -11066.8245 1558.0085 0.0000 0.0000 1740.6560 -7763.5448 291.8334 -9504.2008 -7610.8910 301.7154 401.8081 540.6641 30644.9863 228.4787 301.8785
ENERGY: 1200000 0.3141 5.4892 0.2259 0.0000 -10809.3130 1408.4108 0.0000 0.0000 1759.0242 -7635.8489 294.9130 -9394.8731 -7625.4760 299.1780 -556.0835 -519.0806 31102.7852 217.1481 279.9333
ENERGY: 1500000 0.4621 7.3730 0.1874 0.0000 -10944.3435 1478.4371 0.0000 0.0000 1796.0185 -7661.8654 301.1153 -9457.8839 -7622.3520 299.6684 144.1229 231.4512 30558.7649 226.6549 288.3659
TCL: Running FEP window  18: Lambda1 0.1499999999999997 Lambda2 0.09999999999999969 [dLambda -0.05 ]
TCL: Setting parameter firsttimestep to 0
TCL: Setting parameter alchLambda to 0.1499999999999997
Info: NONBONDED TABLE R-SQUARED SPACING: 0.0625
Info: NONBONDED TABLE SIZE: 705 POINTS
TCL: Setting parameter alchLambda2 to 0.09999999999999969
Info: NONBONDED TABLE R-SQUARED SPACING: 0.0625
Info: NONBONDED TABLE SIZE: 705 POINTS
TCL: Running for 1500000 steps
ETITLE: TS BOND ANGLE DIHED IMPRP ELECT VDW BOUNDARY MISC KINETIC TOTAL TEMP POTENTIAL TOTALAVG TEMPAVG PRESSURE GPRESSURE VOLUME PRESSAVG GPRESSAVG
ENERGY: 0 0.4621 7.3730 0.1874 0.0000 -10944.3445 1478.0147 0.0000 0.0000 1795.1307 -7663.1766 300.9665 -9458.3073 -7663.1766 300.9665 142.6839 229.7369 30558.7649 142.6839 229.7369
ENERGY: 300000 0.2214 4.5528 0.1399 0.0000 -10850.9017 1449.6986 0.0000 0.0000 1794.2075 -7602.0815 300.8117 -9396.2889 -7605.9887 301.2201 -187.2087 -89.8411 30847.6708 23.0620 104.0923
ENERGY: 600000 0.6169 2.8597 0.0431 0.0000 -10825.0315 1417.8470 0.0000 0.0000 1801.9382 -7601.7266 302.1078 -9403.6648 -7597.0048 301.7424 -432.6275 -341.9599 31008.3818 -125.1599 -43.3534
ENERGY: 900000 1.1358 2.5743 0.5958 0.0000 -10855.0437 1494.1947 0.0000 0.0000 1763.7893 -7592.7538 295.7119 -9356.5431 -7599.2466 300.6305 315.1263 335.4661 30858.5243 -68.8675 -1.1919
ENERGY: 1200000 0.5054 5.7715 0.1854 0.0000 -10890.9937 1456.6686 0.0000 0.0000 1774.0614 -7653.8013 297.4341 -9427.8628 -7609.3310 299.9975 -217.7835 -240.8791 31226.6085 -145.6910 -90.6502
ENERGY: 1500000 1.1805 2.6138 0.2641 0.0000 -10981.3577 1450.7376 0.0000 0.0000 1764.9704 -7761.5913 295.9099 -9526.5617 -7618.5624 299.3670 -526.8045 -436.1850 30756.7564 -214.9075 -153.8145
TCL: Running FEP window  19: Lambda1 0.09999999999999969 Lambda2 0.049999999999999684 [dLambda -0.05 ]
TCL: Setting parameter firsttimestep to 0
TCL: Setting parameter alchLambda to 0.09999999999999969
Info: NONBONDED TABLE R-SQUARED SPACING: 0.0625
Info: NONBONDED TABLE SIZE: 705 POINTS
TCL: Setting parameter alchLambda2 to 0.049999999999999684
Info: NONBONDED TABLE R-SQUARED SPACING: 0.0625
Info: NONBONDED TABLE SIZE: 705 POINTS
TCL: Running for 1500000 steps
ETITLE: TS BOND ANGLE DIHED IMPRP ELECT VDW BOUNDARY MISC KINETIC TOTAL TEMP POTENTIAL TOTALAVG TEMPAVG PRESSURE GPRESSURE VOLUME PRESSAVG GPRESSAVG
ENERGY: 0 1.1805 2.6138 0.2641 0.0000 -10981.3577 1450.9949 0.0000 0.0000 1764.1169 -7762.1875 295.7668 -9526.3044 -7762.1875 295.7668 -534.5551 -438.4318 30756.7564 -534.5551 -438.4318
ENERGY: 300000 2.0108 7.6657 0.2684 0.0000 -10883.5349 1428.6142 0.0000 0.0000 1785.4486 -7659.5273 299.3432 -9444.9759 -7618.5498 301.9183 -415.1073 -370.5148 30574.5328 -419.2923 -348.1173
ENERGY: 600000 0.1643 2.2042 0.7354 0.0000 -10746.4535 1342.3072 0.0000 0.0000 1816.7033 -7584.3392 304.5833 -9401.0424 -7613.6211 302.3709 -1162.8086 -1107.3790 31480.8284 -421.0856 -350.6077
ENERGY: 900000 0.4196 2.7740 1.6774 0.0000 -11012.4950 1529.9993 0.0000 0.0000 1805.9502 -7671.6746 302.7804 -9477.6248 -7615.8217 301.4136 148.6663 198.1052 30730.1900 -245.6866 -181.4666
ENERGY: 1200000 0.3897 4.3114 0.7380 0.0000 -11036.3911 1545.4807 0.0000 0.0000 1774.8560 -7710.6152 297.5673 -9485.4712 -7617.8570 301.1220 319.6924 421.3327 30753.3836 -113.6311 -49.1577
ENERGY: 1500000 1.1241 4.1920 0.8526 0.0000 -10784.4015 1380.1838 0.0000 0.0000 1789.8448 -7608.2042 300.0802 -9398.0490 -7624.5528 301.2573 -514.8307 -496.8535 30640.1609 -146.3476 -78.3858
TCL: Running FEP window  20: Lambda1 0.049999999999999684 Lambda2 0.0    [dLambda -0.049999999999999684]
TCL: Setting parameter firsttimestep to 0
TCL: Setting parameter alchLambda to 0.049999999999999684
Info: NONBONDED TABLE R-SQUARED SPACING: 0.0625
Info: NONBONDED TABLE SIZE: 705 POINTS
TCL: Setting parameter alchLambda2 to 0.0
Info: NONBONDED TABLE R-SQUARED SPACING: 0.0625
Info: NONBONDED TABLE SIZE: 705 POINTS
TCL: Running for 1500000 steps
ETITLE: TS BOND ANGLE DIHED IMPRP ELECT VDW BOUNDARY MISC KINETIC TOTAL TEMP POTENTIAL TOTALAVG TEMPAVG PRESSURE GPRESSURE VOLUME PRESSAVG GPRESSAVG
ENERGY: 0 1.1241 4.1920 0.8526 0.0000 -10784.4025 1380.2386 0.0000 0.0000 1788.9037 -7609.0915 299.9225 -9397.9952 -7609.0915 299.9225 -599.9690 -496.7827 30640.1609 -599.9690 -496.7827
ENERGY: 300000 1.8073 4.2860 0.3492 0.0000 -10760.4486 1399.9466 0.0000 0.0000 1775.2200 -7578.8396 297.6283 -9354.0596 -7579.2742 300.6364 -479.4317 -455.7632 31085.0748 -155.1870 -88.2392
ENERGY: 600000 1.8287 4.5264 1.9978 0.0000 -10753.2734 1411.3486 0.0000 0.0000 1787.4218 -7546.1503 299.6740 -9333.5720 -7587.2764 300.1276 -696.6502 -595.1391 31538.6434 -335.3811 -264.2406
ENERGY: 900000 0.1935 4.1887 0.9744 0.0000 -10923.4454 1485.4196 0.0000 0.0000 1782.7724 -7649.8968 298.8945 -9432.6692 -7596.3929 299.9492 -166.0542 -81.1376 31027.0573 -89.4734 -20.9847
ENERGY: 1200000 0.1420 3.8183 0.4426 0.0000 -10821.4132 1440.0625 0.0000 0.0000 1792.9048 -7584.0430 300.5933 -9376.9478 -7601.4520 298.9075 -314.9861 -267.3255 31291.7899 -74.5179 -18.1656
ENERGY: 1500000 0.4808 3.1756 0.1589 0.0000 -10973.8642 1510.9612 0.0000 0.0000 1743.6487 -7715.4391 292.3351 -9459.0877 -7612.5325 298.3059 532.6055 592.7282 30102.8101 -69.0289 -11.6966
TCL: Exiting due to exit command.
