Info: SIMULATION PARAMETERS:
Info: TIMESTEP               2
Info: NUMBER OF STEPS        0
Info: STEPS PER CYCLE        10
Info: PERIODIC CELL BASIS 1  31.0564 0 0
Info: PERIODIC CELL BASIS 2  0 29.6477 0
Info: PERIODIC CELL BASIS 3  0 0 33.2446
Info: PERIODIC CELL CENTER   0 0 0
Info: WRAPPING WATERS AROUND PERIODIC BOUNDARIES ON OUTPUT.
Info: WRAPPING ALL CLUSTERS AROUND PERIODIC BOUNDARIES ON OUTPUT.
Info: FIRST LDB TIMESTEP     50
Info: LAST LDB TIMESTEP     -1
Info: HOM BACKGROUND SCALING 1
Info: PME BACKGROUND SCALING 1
Info: MIN ATOMS PER PATCH    40
Info: EMPTY PATCH LOAD       40 ATOMS
Info: VELOCITY FILE          mobley_8789465_equil.vel
Info: CENTER OF MASS MOVING INITIALLY? NO
Info: DIELECTRIC             1
Info: EXCLUDE                SCALED ONE-FOUR
Info: 1-4 ELECTROSTATICS SCALED BY 0.833333
Info: MODIFIED 1-4 VDW PARAMETERS WILL BE USED
Info: DCD FILENAME           mobley_8789465_prod.dcd
Info: DCD FREQUENCY          100000
Info: DCD FIRST STEP         100000
Info: DCD FILE WILL CONTAIN UNIT CELL DATA
Info: XST FILENAME           mobley_8789465_prod.xst
Info: XST FREQUENCY          100000
Info: NO VELOCITY DCD OUTPUT
Info: NO FORCE DCD OUTPUT
Info: OUTPUT FILENAME        mobley_8789465_prod
Info: BINARY OUTPUT FILES WILL BE USED
Info: RESTART FILENAME       mobley_8789465_prod.restart
Info: RESTART FREQUENCY      100000
Info: BINARY RESTART FILES WILL BE USED
Info: CUTOFF                 9
Info: PAIRLIST DISTANCE      11
Info: PAIRLIST SHRINK RATE   0.01
Info: PAIRLIST GROW RATE     0.01
Info: PAIRLIST TRIGGER       0.3
Info: PAIRLISTS PER CYCLE    2
Info: PAIRLISTS ENABLED
Info: MARGIN                 2
Info: HYDROGEN GROUP CUTOFF  2.5
Info: PATCH DIMENSION        15.5
Info: ENERGY OUTPUT STEPS    100000
Info: ENERGY EVALUATION STEPS    100000
Info: OUTPUT ENERGY PRECISION 4
Info: CROSSTERM ENERGY INCLUDED IN DIHEDRAL
Info: TIMING OUTPUT STEPS    1000000
Info: PRESSURE OUTPUT STEPS  100000
Info: ALCHEMICAL FEP ON
Info: FEP CURRENT LAMBDA VALUE     1
Info: FEP COMPARISON LAMBDA VALUE  0.95
Info: FEP INTRA-ALCHEMICAL NON-BONDED INTERACTIONS WILL BE RETAINED
Info: FEP INTRA-ALCHEMICAL BONDED INTERACTIONS WILL BE RETAINED
Info: FEP VDW SHIFTING COEFFICIENT 5
Info: FEP ELEC. ACTIVE FOR ANNIHILATED PARTICLES BETWEEN LAMBDA = 0 AND LAMBDA = 0.5
Info: FEP ELEC. ACTIVE FOR EXNIHILATED PARTICLES BETWEEN LAMBDA = 0.5 AND LAMBDA = 1
Info: FEP VDW ACTIVE FOR ANNIHILATED PARTICLES BETWEEN LAMBDA = 0 AND LAMBDA = 1
Info: FEP VDW ACTIVE FOR EXNIHILATED PARTICLES BETWEEN LAMBDA = 0 AND LAMBDA = 1
Info: FEP BOND ACTIVE FOR ANNIHILATED PARTICLES BETWEEN LAMBDA = 1 AND LAMBDA = 1
Info: FEP BOND ACTIVE FOR EXNIHILATED PARTICLES BETWEEN LAMBDA = 0 AND LAMBDA = 0
Info: LANGEVIN DYNAMICS ACTIVE
Info: LANGEVIN TEMPERATURE   300
Info: LANGEVIN USING BBK INTEGRATOR
Info: LANGEVIN DAMPING COEFFICIENT IS 1 INVERSE PS
Info: LANGEVIN DYNAMICS APPLIED TO HYDROGENS
Info: LANGEVIN PISTON PRESSURE CONTROL ACTIVE
Info:        TARGET PRESSURE IS 1.01325 BAR
Info:     OSCILLATION PERIOD IS 50 FS
Info:             DECAY TIME IS 25 FS
Info:     PISTON TEMPERATURE IS 300 K
Info:       PRESSURE CONTROL IS GROUP-BASED
Info:    INITIAL STRAIN RATE IS -0.000470348 -0.000470348 -0.000470348
Info:       CELL FLUCTUATION IS ISOTROPIC
Info: PARTICLE MESH EWALD (PME) ACTIVE
Info: PME TOLERANCE               1e-06
Info: PME EWALD COEFFICIENT       0.348832
Info: PME INTERPOLATION ORDER     4
Info: PME GRID DIMENSIONS         32 32 36
Info: PME MAXIMUM GRID SPACING    1
Info: PME CALCULATION WILL BE PERFORMED ON GPU
Info: FULL ELECTROSTATIC EVALUATION FREQUENCY      2
Info: USING VERLET I (r-RESPA) MTS SCHEME.
Info: C1 SPLITTING OF LONG RANGE ELECTROSTATICS
Info: PLACING ATOMS IN PATCHES BY HYDROGEN GROUPS
Info: RIGID BONDS TO HYDROGEN : ALL
Info:         ERROR TOLERANCE : 1e-08
Info:          MAX ITERATIONS : 100
Info: RIGID WATER USING SETTLE ALGORITHM
Info: RANDOM NUMBER SEED     1742605240
Info: USE HYDROGEN BONDS?    NO
Info: Using AMBER format force field!
Info: AMBER PARM FILE        mobley_8789465.prmtop
Info: COORDINATE PDB         mobley_8789465.pdb
Info: Exclusions will be read from PARM file!
Info: SCNB (VDW SCALING)     2
Info: USING ARITHMETIC MEAN TO COMBINE L-J SIGMA PARAMETERS
Info: BINARY COORDINATES     mobley_8789465_equil.coor
Info: SUMMARY OF PARAMETERS:
Info: 7 BONDS
Info: 5 ANGLES
Info:   5 HARMONIC
Info:   0 COSINE-BASED
Info: 3 DIHEDRAL
Info: 0 IMPROPER
Info: 0 CROSSTERM
Info: 0 VDW
Info: 28 VDW_PAIRS
Info: 0 NBTHOLE_PAIRS
Info: To read alchdata from file: mobley_8789465.pdb
Info: To read alchflag data from column: 5
Info: STRUCTURE SUMMARY:
Info: 2971 ATOMS
Info: 2971 BONDS
Info: 19 ANGLES
Info: 31 DIHEDRALS
Info: 0 IMPROPERS
Info: 0 CROSSTERMS
Info: 3013 EXCLUSIONS
Info: 2963 RIGID BONDS
Info: ALCH: 0 ATOMS TO DISAPPEAR IN FINAL STATE
Info: ALCH: 13 ATOMS TO APPEAR IN FINAL STATE
Info: 5950 DEGREES OF FREEDOM
Info: 994 HYDROGEN GROUPS
Info: 3 ATOMS IN LARGEST HYDROGEN GROUP
Info: 994 MIGRATION GROUPS
Info: 3 ATOMS IN LARGEST MIGRATION GROUP
Info: TOTAL MASS = 17983.8 amu
Info: TOTAL CHARGE = 7.45058e-09 e
Info: MASS DENSITY = 0.97561 g/cm^3
Info: ATOM DENSITY = 0.0970597 atoms/A^3
Info: ADDED 0 IMPLICIT EXCLUSIONS
Info: NONBONDED TABLE R-SQUARED SPACING: 0.0625
Info: NONBONDED TABLE SIZE: 705 POINTS
Info: REMOVING COM VELOCITY 0.025847 -0.0523349 -0.216079
Info: Use 3D box decompostion in PME FFT.
Info: Updated CUDA force table with 4096 elements.
Info: Updated CUDA LJ table with 7 x 7 elements.
Info: Found 15 unique exclusion lists needing 28 bytes
TCL: Running for 1500000 steps
ETITLE: TS BOND ANGLE DIHED IMPRP ELECT VDW BOUNDARY MISC KINETIC TOTAL TEMP POTENTIAL TOTALAVG TEMPAVG PRESSURE GPRESSURE VOLUME PRESSAVG GPRESSAVG
ENERGY: 0 1.0473 2.8738 2.3575 0.0000 -10783.9090 1446.2466 0.0000 0.0000 1762.2762 -7569.1077 298.0900 -9331.3839 -7569.1077 298.0900 81.5612 150.3476 30610.0278 81.5612 150.3476
ENERGY: 300000 2.7359 3.6580 3.5749 0.0000 -10731.1302 1374.2031 0.0000 0.0000 1708.8967 -7638.0614 289.0608 -9346.9581 -7556.0210 299.2145 -750.4331 -606.9734 30890.1160 -319.8250 -218.4339
ENERGY: 600000 1.6666 3.3894 1.1486 0.0000 -10711.4284 1426.2194 0.0000 0.0000 1711.3686 -7567.6358 289.4789 -9279.0044 -7551.4761 298.9177 -131.3533 -55.5867 30912.5438 -312.1087 -231.4551
ENERGY: 900000 2.3154 2.6648 3.2144 0.0000 -10624.3240 1361.8828 0.0000 0.0000 1763.5377 -7490.7089 298.3034 -9254.2466 -7534.2370 298.9390 -707.1693 -618.8635 31073.8872 -297.0489 -216.3953
ENERGY: 1200000 1.8930 1.4343 9.6837 0.0000 -10878.8108 1467.7725 0.0000 0.0000 1765.7983 -7632.2290 298.6858 -9398.0273 -7536.8456 299.6321 -495.3442 -392.9961 31227.4938 -242.7888 -163.2377
ENERGY: 1500000 1.9305 2.1744 4.8604 0.0000 -10590.5248 1318.0675 0.0000 0.0000 1758.2183 -7505.2737 297.4036 -9263.4920 -7543.1694 298.7618 -901.2237 -809.5902 30804.5180 -151.2875 -73.8393
TCL: Running FEP window   2: Lambda1 0.95   Lambda2 0.8999999999999999 [dLambda -0.050000000000000044]
TCL: Setting parameter firsttimestep to 0
TCL: Setting parameter alchLambda to 0.95
Info: NONBONDED TABLE R-SQUARED SPACING: 0.0625
Info: NONBONDED TABLE SIZE: 705 POINTS
TCL: Setting parameter alchLambda2 to 0.8999999999999999
Info: NONBONDED TABLE R-SQUARED SPACING: 0.0625
Info: NONBONDED TABLE SIZE: 705 POINTS
TCL: Running for 1500000 steps
ETITLE: TS BOND ANGLE DIHED IMPRP ELECT VDW BOUNDARY MISC KINETIC TOTAL TEMP POTENTIAL TOTALAVG TEMPAVG PRESSURE GPRESSURE VOLUME PRESSAVG GPRESSAVG
ENERGY: 0 1.9305 2.1744 4.8604 0.0000 -10588.3884 1316.5838 0.0000 0.0000 1757.3493 -7505.4900 297.2566 -9262.8393 -7505.4900 297.2566 -910.9363 -835.6426 30804.5180 -910.9363 -835.6426
ENERGY: 300000 2.2467 3.5401 1.5668 0.0000 -10738.2562 1480.2661 0.0000 0.0000 1786.9420 -7463.6945 302.2622 -9250.6366 -7492.3631 302.2894 475.6582 557.3085 30840.2679 -157.0895 -94.0377
ENERGY: 600000 2.5069 2.8575 1.9288 0.0000 -10761.3810 1445.1376 0.0000 0.0000 1765.0044 -7543.9457 298.5515 -9308.9501 -7520.9897 299.2152 -13.4547 89.2665 30649.4452 -130.6479 -61.5935
ENERGY: 900000 2.1484 3.2112 5.5843 0.0000 -10828.9218 1503.6332 0.0000 0.0000 1843.6506 -7470.6940 311.8545 -9314.3446 -7523.2956 300.6216 430.8021 488.3345 30938.4631 -177.8294 -106.8106
ENERGY: 1200000 1.8015 2.9021 2.6155 0.0000 -10707.8078 1420.5992 0.0000 0.0000 1789.5370 -7490.3525 302.7012 -9279.8895 -7520.2357 300.9937 -63.1357 -10.6528 30764.5987 -166.3918 -90.1898
ENERGY: 1500000 2.5575 1.9731 4.6648 0.0000 -10771.6074 1442.4051 0.0000 0.0000 1733.3572 -7586.6497 293.1983 -9320.0069 -7526.6020 300.2351 -310.9376 -216.3005 30950.4756 -153.0587 -79.1962
TCL: Running FEP window   3: Lambda1 0.8999999999999999 Lambda2 0.8499999999999999 [dLambda -0.050000000000000044]
TCL: Setting parameter firsttimestep to 0
TCL: Setting parameter alchLambda to 0.8999999999999999
Info: NONBONDED TABLE R-SQUARED SPACING: 0.0625
Info: NONBONDED TABLE SIZE: 705 POINTS
TCL: Setting parameter alchLambda2 to 0.8499999999999999
Info: NONBONDED TABLE R-SQUARED SPACING: 0.0625
Info: NONBONDED TABLE SIZE: 705 POINTS
TCL: Running for 1500000 steps
ETITLE: TS BOND ANGLE DIHED IMPRP ELECT VDW BOUNDARY MISC KINETIC TOTAL TEMP POTENTIAL TOTALAVG TEMPAVG PRESSURE GPRESSURE VOLUME PRESSAVG GPRESSAVG
ENERGY: 0 2.5575 1.9731 4.6648 0.0000 -10769.3094 1441.2299 0.0000 0.0000 1732.4773 -7586.4069 293.0495 -9318.8841 -7586.4069 293.0495 -330.3491 -240.7441 30950.4756 -330.3491 -240.7441
ENERGY: 300000 1.5919 6.1942 5.3065 0.0000 -10783.0970 1453.3654 0.0000 0.0000 1751.6051 -7565.0340 296.2850 -9316.6390 -7554.0985 299.0228 13.0631 41.3052 30633.9154 -210.0298 -130.0066
ENERGY: 600000 2.8464 2.2494 3.4280 0.0000 -10749.3431 1431.4824 0.0000 0.0000 1744.6052 -7564.7316 295.1009 -9309.3368 -7546.0545 298.6013 -143.6273 -143.4269 30606.8737 -94.3148 -25.1082
ENERGY: 900000 3.1809 4.0019 2.4261 0.0000 -10858.2574 1498.6193 0.0000 0.0000 1786.7026 -7563.3266 302.2217 -9350.0292 -7543.1281 298.9441 475.5984 508.6094 30376.0085 -33.0751 41.0284
ENERGY: 1200000 1.8369 2.3960 3.7882 0.0000 -10822.8026 1475.1762 0.0000 0.0000 1669.0118 -7670.5936 282.3143 -9339.6054 -7558.0819 298.2091 215.9099 323.1040 30066.9378 164.0934 234.7799
ENERGY: 1500000 1.7208 1.1351 3.9094 0.0000 -10850.5575 1520.3897 0.0000 0.0000 1809.6721 -7513.7303 306.1070 -9323.4024 -7564.0432 298.3519 556.8119 641.5836 30526.8951 252.1181 317.7725
TCL: Running FEP window   4: Lambda1 0.8499999999999999 Lambda2 0.7999999999999998 [dLambda -0.050000000000000044]
TCL: Setting parameter firsttimestep to 0
TCL: Setting parameter alchLambda to 0.8499999999999999
Info: NONBONDED TABLE R-SQUARED SPACING: 0.0625
Info: NONBONDED TABLE SIZE: 705 POINTS
TCL: Setting parameter alchLambda2 to 0.7999999999999998
Info: NONBONDED TABLE R-SQUARED SPACING: 0.0625
Info: NONBONDED TABLE SIZE: 705 POINTS
TCL: Running for 1500000 steps
ETITLE: TS BOND ANGLE DIHED IMPRP ELECT VDW BOUNDARY MISC KINETIC TOTAL TEMP POTENTIAL TOTALAVG TEMPAVG PRESSURE GPRESSURE VOLUME PRESSAVG GPRESSAVG
ENERGY: 0 1.7208 1.1351 3.9094 0.0000 -10850.0496 1520.8523 0.0000 0.0000 1808.7797 -7513.6523 305.9561 -9322.4320 -7513.6523 305.9561 544.7780 636.9109 30526.8951 544.7780 636.9109
ENERGY: 300000 2.4239 5.5219 2.5870 0.0000 -10925.2132 1523.3609 0.0000 0.0000 1740.4419 -7650.8777 294.3967 -9391.3196 -7579.7119 298.5212 335.2927 421.6327 30648.4232 284.1228 353.4694
ENERGY: 600000 1.8260 2.1312 2.2893 0.0000 -10710.0191 1416.2730 0.0000 0.0000 1797.6744 -7489.8252 304.0776 -9287.4996 -7545.6022 299.6444 -225.8615 -198.3236 30901.0265 154.6350 206.7337
ENERGY: 900000 1.8768 5.4384 2.6107 0.0000 -10635.6133 1406.5495 0.0000 0.0000 1732.0563 -7487.0816 292.9783 -9219.1379 -7543.9474 299.6194 -113.3705 -116.6306 31106.8701 98.5707 151.5757
ENERGY: 1200000 3.2156 2.6540 1.8463 0.0000 -10757.4172 1434.4898 0.0000 0.0000 1821.2258 -7493.9857 308.0613 -9315.2115 -7537.2784 300.6088 -192.4753 -92.9640 30789.3343 26.6919 87.9856
ENERGY: 1500000 0.9399 4.4709 3.3234 0.0000 -10800.6526 1449.8097 0.0000 0.0000 1803.3571 -7538.7515 305.0389 -9342.1087 -7540.9645 300.4790 -80.2102 1.0660 30865.7952 10.9596 77.0126
TCL: Running FEP window   5: Lambda1 0.7999999999999998 Lambda2 0.7499999999999998 [dLambda -0.050000000000000044]
TCL: Setting parameter firsttimestep to 0
TCL: Setting parameter alchLambda to 0.7999999999999998
Info: NONBONDED TABLE R-SQUARED SPACING: 0.0625
Info: NONBONDED TABLE SIZE: 705 POINTS
TCL: Setting parameter alchLambda2 to 0.7499999999999998
Info: NONBONDED TABLE R-SQUARED SPACING: 0.0625
Info: NONBONDED TABLE SIZE: 705 POINTS
TCL: Running for 1500000 steps
ETITLE: TS BOND ANGLE DIHED IMPRP ELECT VDW BOUNDARY MISC KINETIC TOTAL TEMP POTENTIAL TOTALAVG TEMPAVG PRESSURE GPRESSURE VOLUME PRESSAVG GPRESSAVG
ENERGY: 0 0.9399 4.4709 3.3234 0.0000 -10799.7620 1449.3978 0.0000 0.0000 1802.4801 -7539.1500 304.8905 -9341.6301 -7539.1500 304.8905 -100.7539 -9.8801 30865.7952 -100.7539 -9.8801
ENERGY: 300000 1.2066 3.0029 5.1947 0.0000 -10737.6979 1454.3584 0.0000 0.0000 1753.3209 -7520.6145 296.5752 -9273.9354 -7504.7847 302.3363 35.2437 134.4450 30811.1291 73.3327 145.6812
ENERGY: 600000 1.5936 4.5661 4.6548 0.0000 -10758.3324 1455.4340 0.0000 0.0000 1810.8297 -7481.2541 306.3028 -9292.0838 -7496.9636 304.6229 486.3080 528.2419 30303.9063 94.0300 163.4156
ENERGY: 900000 3.0440 6.9820 3.1214 0.0000 -10791.0011 1485.1208 0.0000 0.0000 1811.7227 -7481.0102 306.4539 -9292.7329 -7502.1199 304.9925 426.2594 460.9347 30417.2740 158.3368 218.1141
ENERGY: 1200000 2.1826 1.5754 2.3512 0.0000 -10791.1024 1427.9418 0.0000 0.0000 1741.8218 -7615.2297 294.6301 -9357.0515 -7517.5386 304.8020 -321.4645 -276.2017 30717.5815 27.5059 87.3299
ENERGY: 1500000 1.9438 1.8140 4.8264 0.0000 -10710.8221 1397.6888 0.0000 0.0000 1766.5583 -7537.9908 298.8143 -9304.5491 -7521.0979 304.5975 -344.1487 -321.9359 30623.8685 36.0614 95.3134
TCL: Running FEP window   6: Lambda1 0.7499999999999998 Lambda2 0.6999999999999997 [dLambda -0.050000000000000044]
TCL: Setting parameter firsttimestep to 0
TCL: Setting parameter alchLambda to 0.7499999999999998
Info: NONBONDED TABLE R-SQUARED SPACING: 0.0625
Info: NONBONDED TABLE SIZE: 705 POINTS
TCL: Setting parameter alchLambda2 to 0.6999999999999997
Info: NONBONDED TABLE R-SQUARED SPACING: 0.0625
Info: NONBONDED TABLE SIZE: 705 POINTS
TCL: Running for 1500000 steps
ETITLE: TS BOND ANGLE DIHED IMPRP ELECT VDW BOUNDARY MISC KINETIC TOTAL TEMP POTENTIAL TOTALAVG TEMPAVG PRESSURE GPRESSURE VOLUME PRESSAVG GPRESSAVG
ENERGY: 0 1.9438 1.8140 4.8264 0.0000 -10710.3854 1398.0730 0.0000 0.0000 1765.6731 -7538.0552 298.6646 -9303.7282 -7538.0552 298.6646 -404.5578 -329.2734 30623.8685 -404.5578 -329.2734
ENERGY: 300000 2.3831 2.9217 4.6821 0.0000 -10895.2139 1493.1489 0.0000 0.0000 1810.6783 -7581.3997 306.2772 -9392.0780 -7542.0355 303.3312 121.4746 205.5874 30385.8735 -7.5003 51.8120
ENERGY: 600000 1.9102 1.7004 2.0137 0.0000 -10597.2494 1347.0206 0.0000 0.0000 1749.7969 -7494.8076 295.9791 -9244.6045 -7523.0914 303.3001 -751.9144 -680.6934 30956.4032 -210.7211 -147.9273
ENERGY: 900000 0.8895 5.2275 1.0574 0.0000 -10796.9986 1447.0422 0.0000 0.0000 1721.9959 -7620.7861 291.2766 -9342.7820 -7546.3423 301.5258 -16.2933 53.0243 30409.9176 -189.5669 -129.1405
ENERGY: 1200000 3.4736 2.9228 3.1544 0.0000 -10730.7397 1401.5873 0.0000 0.0000 1801.5573 -7518.0442 304.7344 -9319.6015 -7538.8125 301.5175 -247.3071 -101.2272 30413.6410 -93.6167 -33.1763
ENERGY: 1500000 0.8233 3.3779 4.6806 0.0000 -10738.2385 1396.8978 0.0000 0.0000 1780.7240 -7551.7351 301.2104 -9332.4591 -7539.2584 301.6127 -335.7549 -254.1405 30636.5805 -146.1013 -84.8445
TCL: Running FEP window   7: Lambda1 0.6999999999999997 Lambda2 0.6499999999999997 [dLambda -0.050000000000000044]
TCL: Setting parameter firsttimestep to 0
TCL: Setting parameter alchLambda to 0.6999999999999997
Info: NONBONDED TABLE R-SQUARED SPACING: 0.0625
Info: NONBONDED TABLE SIZE: 705 POINTS
TCL: Setting parameter alchLambda2 to 0.6499999999999997
Info: NONBONDED TABLE R-SQUARED SPACING: 0.0625
Info: NONBONDED TABLE SIZE: 705 POINTS
TCL: Running for 1500000 steps
ETITLE: TS BOND ANGLE DIHED IMPRP ELECT VDW BOUNDARY MISC KINETIC TOTAL TEMP POTENTIAL TOTALAVG TEMPAVG PRESSURE GPRESSURE VOLUME PRESSAVG GPRESSAVG
ENERGY: 0 0.8233 3.3779 4.6806 0.0000 -10738.1307 1397.1000 0.0000 0.0000 1779.8377 -7552.3113 301.0605 -9332.1491 -7552.3113 301.0605 -346.5222 -260.3141 30636.5805 -346.5222 -260.3141
ENERGY: 300000 1.5688 3.1260 2.0620 0.0000 -10819.7556 1434.6833 0.0000 0.0000 1776.5220 -7601.7936 300.4997 -9378.3156 -7561.5871 298.0845 -445.0146 -395.7854 30985.9881 -673.9539 -588.9811
ENERGY: 600000 6.2377 1.0641 1.8176 0.0000 -10767.2968 1404.6532 0.0000 0.0000 1790.1639 -7563.3603 302.8072 -9353.5241 -7542.1120 300.4002 -790.3805 -702.8640 30895.6252 -471.5279 -401.7400
ENERGY: 900000 1.2903 2.9514 3.3584 0.0000 -10794.0601 1423.6968 0.0000 0.0000 1825.2401 -7537.5231 308.7404 -9362.7632 -7538.6473 301.7470 -404.5226 -279.8669 30656.2228 -321.4666 -246.4857
ENERGY: 1200000 0.8855 3.6230 5.6452 0.0000 -10758.9103 1550.0276 0.0000 0.0000 1710.0220 -7488.7070 289.2512 -9198.7290 -7533.6898 300.7478 762.4291 899.9311 30847.6074 -128.3507 -49.7981
ENERGY: 1500000 1.9975 2.9040 4.5839 0.0000 -10683.4171 1427.0726 0.0000 0.0000 1742.3112 -7504.5479 294.7129 -9246.8592 -7536.1925 300.3107 -217.1005 -144.5675 31173.9545 -77.9655 -4.6341
TCL: Running FEP window   8: Lambda1 0.6499999999999997 Lambda2 0.5999999999999996 [dLambda -0.050000000000000044]
TCL: Setting parameter firsttimestep to 0
TCL: Setting parameter alchLambda to 0.6499999999999997
Info: NONBONDED TABLE R-SQUARED SPACING: 0.0625
Info: NONBONDED TABLE SIZE: 705 POINTS
TCL: Setting parameter alchLambda2 to 0.5999999999999996
Info: NONBONDED TABLE R-SQUARED SPACING: 0.0625
Info: NONBONDED TABLE SIZE: 705 POINTS
TCL: Running for 1500000 steps
ETITLE: TS BOND ANGLE DIHED IMPRP ELECT VDW BOUNDARY MISC KINETIC TOTAL TEMP POTENTIAL TOTALAVG TEMPAVG PRESSURE GPRESSURE VOLUME PRESSAVG GPRESSAVG
ENERGY: 0 1.9975 2.9040 4.5839 0.0000 -10682.2683 1427.1928 0.0000 0.0000 1741.4097 -7504.1804 294.5604 -9245.5901 -7504.1804 294.5604 -230.5067 -148.7190 31173.9545 -230.5067 -148.7190
ENERGY: 300000 1.7654 4.4736 1.6329 0.0000 -10831.3118 1533.8181 0.0000 0.0000 1795.3363 -7494.2856 303.6821 -9289.6219 -7523.5115 299.0100 803.2334 912.7661 30390.8936 144.1332 248.9910
ENERGY: 600000 3.3008 3.4478 3.7786 0.0000 -10891.3289 1511.8345 0.0000 0.0000 1804.6039 -7564.3632 305.2497 -9368.9671 -7535.2335 301.2432 471.0245 579.7255 30228.7870 136.9352 231.8525
ENERGY: 900000 3.0031 3.0977 2.0206 0.0000 -10761.0843 1500.0594 0.0000 0.0000 1817.2119 -7435.6916 307.3824 -9252.9035 -7530.7343 301.3501 785.2434 854.6313 30342.6851 250.7305 332.9440
ENERGY: 1200000 2.6923 4.8135 3.6043 0.0000 -10650.5780 1404.7185 0.0000 0.0000 1773.8479 -7460.9015 300.0474 -9234.7494 -7527.3843 301.7095 -144.3390 -96.8621 30743.2571 144.7840 218.6891
ENERGY: 1500000 3.8853 3.7508 3.9066 0.0000 -10836.4303 1398.2141 0.0000 0.0000 1770.4523 -7656.2212 299.4730 -9426.6735 -7535.1455 301.4775 -674.8104 -607.9010 30349.7788 110.3170 181.2283
TCL: Running FEP window   9: Lambda1 0.5999999999999996 Lambda2 0.5499999999999996 [dLambda -0.050000000000000044]
TCL: Setting parameter firsttimestep to 0
TCL: Setting parameter alchLambda to 0.5999999999999996
Info: NONBONDED TABLE R-SQUARED SPACING: 0.0625
Info: NONBONDED TABLE SIZE: 705 POINTS
TCL: Setting parameter alchLambda2 to 0.5499999999999996
Info: NONBONDED TABLE R-SQUARED SPACING: 0.0625
Info: NONBONDED TABLE SIZE: 705 POINTS
TCL: Running for 1500000 steps
ETITLE: TS BOND ANGLE DIHED IMPRP ELECT VDW BOUNDARY MISC KINETIC TOTAL TEMP POTENTIAL TOTALAVG TEMPAVG PRESSURE GPRESSURE VOLUME PRESSAVG GPRESSAVG
ENERGY: 0 3.8853 3.7508 3.9066 0.0000 -10836.4605 1398.8744 0.0000 0.0000 1769.5326 -7656.5107 299.3174 -9426.0434 -7656.5107 299.3174 -699.8286 -608.3926 30349.7788 -699.8286 -608.3926
ENERGY: 300000 0.2972 3.9480 1.7307 0.0000 -10757.5903 1445.3236 0.0000 0.0000 1724.4506 -7581.8401 291.6918 -9306.2908 -7572.1606 298.4316 -112.8991 -30.9920 30812.3783 -216.4762 -147.7161
ENERGY: 600000 2.7066 1.8852 3.1290 0.0000 -10765.7331 1444.1609 0.0000 0.0000 1761.6227 -7552.2287 297.9794 -9313.8514 -7570.3674 298.0716 204.2670 188.8289 30426.4774 -118.0488 -76.0624
ENERGY: 900000 2.1889 2.3768 5.7257 0.0000 -10836.6284 1451.8676 0.0000 0.0000 1772.5943 -7601.8752 299.8353 -9374.4694 -7565.4430 299.2347 -278.3829 -224.5007 30656.5130 -24.7814 22.9607
ENERGY: 1200000 3.3673 4.5726 1.8940 0.0000 -10682.2280 1387.0520 0.0000 0.0000 1783.4114 -7501.9306 301.6650 -9285.3420 -7564.7790 299.7900 -411.5098 -317.5801 30790.8302 -49.7137 7.0869
ENERGY: 1500000 0.4287 2.0090 1.5498 0.0000 -10841.3971 1487.8014 0.0000 0.0000 1743.9920 -7605.6162 294.9972 -9349.6082 -7566.6258 299.8467 186.0047 265.3726 30692.9555 32.0744 89.6565
TCL: Running FEP window  10: Lambda1 0.5499999999999996 Lambda2 0.4999999999999996 [dLambda -0.04999999999999999]
TCL: Setting parameter firsttimestep to 0
TCL: Setting parameter alchLambda to 0.5499999999999996
Info: NONBONDED TABLE R-SQUARED SPACING: 0.0625
Info: NONBONDED TABLE SIZE: 705 POINTS
TCL: Setting parameter alchLambda2 to 0.4999999999999996
Info: NONBONDED TABLE R-SQUARED SPACING: 0.0625
Info: NONBONDED TABLE SIZE: 705 POINTS
TCL: Running for 1500000 steps
ETITLE: TS BOND ANGLE DIHED IMPRP ELECT VDW BOUNDARY MISC KINETIC TOTAL TEMP POTENTIAL TOTALAVG TEMPAVG PRESSURE GPRESSURE VOLUME PRESSAVG GPRESSAVG
ENERGY: 0 0.4287 2.0089 1.5498 0.0000 -10841.2926 1488.1588 0.0000 0.0000 1743.1141 -7606.0323 294.8487 -9349.1463 -7606.0323 294.8487 176.8691 260.5224 30692.9555 176.8691 260.5224
ENERGY: 300000 1.3885 2.1188 1.9008 0.0000 -10695.0378 1372.4776 0.0000 0.0000 1753.8678 -7563.2843 296.6677 -9317.1521 -7554.9815 298.8936 -751.1442 -740.0361 31129.5862 -269.9906 -211.6942
ENERGY: 600000 2.0380 2.1003 4.8444 0.0000 -10658.3575 1387.7256 0.0000 0.0000 1741.5266 -7520.1227 294.5802 -9261.6493 -7555.4551 297.1171 -556.5454 -483.7163 30941.6225 -272.2109 -215.5090
ENERGY: 900000 1.4115 2.8731 3.9592 0.0000 -10707.9851 1324.1123 0.0000 0.0000 1809.6229 -7566.0061 306.0987 -9375.6290 -7549.9651 298.5132 -968.2689 -952.8627 30388.2060 -309.0943 -257.0656
ENERGY: 1200000 4.7836 3.2340 3.1278 0.0000 -10864.0155 1520.0837 0.0000 0.0000 1752.7430 -7580.0434 296.4774 -9332.7864 -7549.7882 299.1529 213.6618 290.3715 30916.1795 -234.8407 -179.6546
ENERGY: 1500000 2.7068 2.3958 2.0915 0.0000 -10893.5730 1453.2026 0.0000 0.0000 1745.8450 -7687.3312 295.3106 -9433.1762 -7559.7058 299.3307 17.4528 25.1395 29970.2890 -179.8268 -126.9975
TCL: Running FEP window  11: Lambda1 0.4999999999999996 Lambda2 0.4499999999999996 [dLambda -0.04999999999999999]
TCL: Setting parameter firsttimestep to 0
TCL: Setting parameter alchLambda to 0.4999999999999996
Info: NONBONDED TABLE R-SQUARED SPACING: 0.0625
Info: NONBONDED TABLE SIZE: 705 POINTS
TCL: Setting parameter alchLambda2 to 0.4499999999999996
Info: NONBONDED TABLE R-SQUARED SPACING: 0.0625
Info: NONBONDED TABLE SIZE: 705 POINTS
TCL: Running for 1500000 steps
ETITLE: TS BOND ANGLE DIHED IMPRP ELECT VDW BOUNDARY MISC KINETIC TOTAL TEMP POTENTIAL TOTALAVG TEMPAVG PRESSURE GPRESSURE VOLUME PRESSAVG GPRESSAVG
ENERGY: 0 2.7068 2.3959 2.0915 0.0000 -10893.1822 1452.8963 0.0000 0.0000 1744.9742 -7688.1175 295.1634 -9433.0917 -7688.1175 295.1634 -64.9570 14.7597 29970.2890 -64.9570 14.7597
ENERGY: 300000 1.5660 2.5580 1.3788 0.0000 -10794.1240 1466.2349 0.0000 0.0000 1791.4008 -7530.9856 303.0164 -9322.3864 -7591.7355 298.5113 238.5166 282.1459 30466.4542 16.2071 101.1205
ENERGY: 600000 2.5093 3.7671 1.0973 0.0000 -10754.1604 1401.3596 0.0000 0.0000 1751.5091 -7593.9181 296.2687 -9345.4272 -7556.5861 299.3693 -608.8222 -540.2426 30712.1206 -180.0581 -94.2838
ENERGY: 900000 4.2275 1.8436 2.8122 0.0000 -10693.7675 1390.5448 0.0000 0.0000 1809.7745 -7484.5650 306.1244 -9294.3395 -7549.3580 299.2712 -463.0917 -401.0871 30716.3726 -118.7595 -39.9169
ENERGY: 1200000 1.0994 4.4849 2.5810 0.0000 -10858.5309 1466.4128 0.0000 0.0000 1734.5761 -7649.3766 293.4045 -9383.9527 -7570.4958 297.6925 -193.4056 -168.8698 30669.9214 -155.0261 -75.7845
ENERGY: 1500000 2.9835 4.1044 4.0584 0.0000 -10740.7624 1466.4629 0.0000 0.0000 1755.4061 -7507.7471 296.9279 -9263.1532 -7563.8798 298.4512 71.8234 118.0572 30601.4414 -165.9352 -89.6685
TCL: Running FEP window  12: Lambda1 0.4499999999999996 Lambda2 0.39999999999999963 [dLambda -0.04999999999999999]
TCL: Setting parameter firsttimestep to 0
TCL: Setting parameter alchLambda to 0.4499999999999996
Info: NONBONDED TABLE R-SQUARED SPACING: 0.0625
Info: NONBONDED TABLE SIZE: 705 POINTS
TCL: Setting parameter alchLambda2 to 0.39999999999999963
Info: NONBONDED TABLE R-SQUARED SPACING: 0.0625
Info: NONBONDED TABLE SIZE: 705 POINTS
TCL: Running for 1500000 steps
ETITLE: TS BOND ANGLE DIHED IMPRP ELECT VDW BOUNDARY MISC KINETIC TOTAL TEMP POTENTIAL TOTALAVG TEMPAVG PRESSURE GPRESSURE VOLUME PRESSAVG GPRESSAVG
ENERGY: 0 2.9835 4.1044 4.0584 0.0000 -10740.7612 1466.5233 0.0000 0.0000 1754.5168 -7508.5748 296.7775 -9263.0916 -7508.5748 296.7775 32.5740 113.0683 30601.4414 32.5740 113.0683
ENERGY: 300000 2.6879 1.9830 4.6370 0.0000 -10716.1358 1459.3132 0.0000 0.0000 1805.6977 -7441.8170 305.4348 -9247.5147 -7521.2464 300.6396 204.2090 240.2684 30474.8469 -129.9103 -67.7143
ENERGY: 600000 2.5939 7.0448 5.5846 0.0000 -10848.9995 1522.6570 0.0000 0.0000 1773.3625 -7537.7566 299.9653 -9311.1191 -7512.7034 301.7804 348.1592 400.7699 30537.0886 -31.4311 25.7023
ENERGY: 900000 2.4717 3.0636 1.1907 0.0000 -10783.2662 1453.3679 0.0000 0.0000 1789.5520 -7533.6203 302.7037 -9323.1723 -7509.2933 302.7970 122.7638 235.5024 30570.1549 62.0602 121.3895
ENERGY: 1200000 3.1301 1.7582 1.4961 0.0000 -10773.7524 1420.0536 0.0000 0.0000 1826.4385 -7520.8759 308.9431 -9347.3144 -7528.4691 302.6374 -135.4638 -57.5188 30253.3137 7.0921 65.5561
ENERGY: 1500000 2.8506 1.4795 3.2715 0.0000 -10724.2245 1420.3903 0.0000 0.0000 1778.7562 -7517.4764 300.8776 -9296.2326 -7537.3531 301.5426 -370.4005 -354.0135 30871.3683 -24.2076 33.5426
TCL: Running FEP window  13: Lambda1 0.39999999999999963 Lambda2 0.34999999999999964 [dLambda -0.04999999999999999]
TCL: Setting parameter firsttimestep to 0
TCL: Setting parameter alchLambda to 0.39999999999999963
Info: NONBONDED TABLE R-SQUARED SPACING: 0.0625
Info: NONBONDED TABLE SIZE: 705 POINTS
TCL: Setting parameter alchLambda2 to 0.34999999999999964
Info: NONBONDED TABLE R-SQUARED SPACING: 0.0625
Info: NONBONDED TABLE SIZE: 705 POINTS
TCL: Running for 1500000 steps
ETITLE: TS BOND ANGLE DIHED IMPRP ELECT VDW BOUNDARY MISC KINETIC TOTAL TEMP POTENTIAL TOTALAVG TEMPAVG PRESSURE GPRESSURE VOLUME PRESSAVG GPRESSAVG
ENERGY: 0 2.8505 1.4795 3.2715 0.0000 -10724.2261 1420.7214 0.0000 0.0000 1777.8860 -7518.0172 300.7304 -9295.9032 -7518.0172 300.7304 -442.2261 -358.5506 30871.3683 -442.2261 -358.5506
ENERGY: 300000 1.3023 3.9002 1.7724 0.0000 -10760.2830 1359.8103 0.0000 0.0000 1766.4082 -7627.0897 298.7889 -9393.4978 -7545.5643 297.6437 -817.0446 -725.1944 30343.7798 -692.0828 -623.7880
ENERGY: 600000 3.3815 3.5250 2.1316 0.0000 -10799.4752 1430.8143 0.0000 0.0000 1773.8501 -7585.7727 300.0477 -9359.6229 -7562.1515 298.2268 0.5157 27.0006 30082.4990 -408.5844 -357.1086
ENERGY: 900000 3.2699 2.5976 3.3875 0.0000 -10518.6140 1335.2171 0.0000 0.0000 1787.3980 -7386.7440 302.3394 -9174.1420 -7528.6940 299.2350 -804.9045 -766.3840 31257.9266 -247.2622 -202.1565
ENERGY: 1200000 2.0449 1.8761 2.2883 0.0000 -10667.6607 1373.5630 0.0000 0.0000 1793.9125 -7493.9759 303.4413 -9287.8884 -7525.3869 299.1493 -678.0101 -574.5867 30703.1920 -343.9832 -291.1435
ENERGY: 1500000 8.1899 1.8431 1.9969 0.0000 -10797.6298 1431.0950 0.0000 0.0000 1761.8556 -7592.6493 298.0189 -9354.5049 -7536.7448 298.5933 -300.4081 -324.7643 30442.2149 -329.9108 -279.6821
TCL: Running FEP window  14: Lambda1 0.34999999999999964 Lambda2 0.29999999999999966 [dLambda -0.04999999999999999]
TCL: Setting parameter firsttimestep to 0
TCL: Setting parameter alchLambda to 0.34999999999999964
Info: NONBONDED TABLE R-SQUARED SPACING: 0.0625
Info: NONBONDED TABLE SIZE: 705 POINTS
TCL: Setting parameter alchLambda2 to 0.29999999999999966
Info: NONBONDED TABLE R-SQUARED SPACING: 0.0625
Info: NONBONDED TABLE SIZE: 705 POINTS
TCL: Running for 1500000 steps
ETITLE: TS BOND ANGLE DIHED IMPRP ELECT VDW BOUNDARY MISC KINETIC TOTAL TEMP POTENTIAL TOTALAVG TEMPAVG PRESSURE GPRESSURE VOLUME PRESSAVG GPRESSAVG
ENERGY: 0 8.1899 1.8431 1.9969 0.0000 -10797.6292 1431.4417 0.0000 0.0000 1760.9913 -7593.1663 297.8726 -9354.1576 -7593.1663 297.8726 -408.2228 -326.9959 30442.2149 -408.2228 -326.9959
ENERGY: 300000 1.8281 4.0241 3.1750 0.0000 -10773.5434 1424.6519 0.0000 0.0000 1801.6657 -7538.1986 304.7527 -9339.8642 -7544.2717 300.4271 -148.5988 -94.7763 30231.7745 -67.8083 3.6744
ENERGY: 600000 0.7556 1.5389 5.6408 0.0000 -10765.1865 1442.0644 0.0000 0.0000 1770.2272 -7544.9596 299.4349 -9315.1868 -7562.7125 299.6257 -30.3425 60.7996 30456.5194 -201.3004 -131.7458
ENERGY: 900000 4.7751 0.9219 2.2968 0.0000 -10666.7550 1364.7380 0.0000 0.0000 1785.2043 -7508.8189 301.9683 -9294.0232 -7562.3933 299.0077 -705.8596 -640.8823 30436.1270 -182.7744 -111.5444
ENERGY: 1200000 8.9539 2.4206 4.1073 0.0000 -10794.7894 1446.4725 0.0000 0.0000 1772.6711 -7560.1639 299.8483 -9332.8350 -7556.0383 298.1851 -352.2782 -336.2667 31128.1155 -214.9697 -142.8818
ENERGY: 1500000 2.3232 3.2159 1.9730 0.0000 -10740.6525 1474.2191 0.0000 0.0000 1771.1196 -7487.8017 299.5859 -9258.9212 -7539.6414 299.4940 445.4676 540.8551 30494.8572 -127.3851 -50.9462
TCL: Running FEP window  15: Lambda1 0.29999999999999966 Lambda2 0.24999999999999967 [dLambda -0.04999999999999999]
TCL: Setting parameter firsttimestep to 0
TCL: Setting parameter alchLambda to 0.29999999999999966
Info: NONBONDED TABLE R-SQUARED SPACING: 0.0625
Info: NONBONDED TABLE SIZE: 705 POINTS
TCL: Setting parameter alchLambda2 to 0.24999999999999967
Info: NONBONDED TABLE R-SQUARED SPACING: 0.0625
Info: NONBONDED TABLE SIZE: 705 POINTS
TCL: Running for 1500000 steps
ETITLE: TS BOND ANGLE DIHED IMPRP ELECT VDW BOUNDARY MISC KINETIC TOTAL TEMP POTENTIAL TOTALAVG TEMPAVG PRESSURE GPRESSURE VOLUME PRESSAVG GPRESSAVG
ENERGY: 0 2.3232 3.2159 1.9730 0.0000 -10740.6532 1473.9414 0.0000 0.0000 1770.2287 -7488.9710 299.4352 -9259.1996 -7488.9710 299.4352 451.1483 532.8714 30494.8572 451.1483 532.8714
ENERGY: 300000 1.2572 3.0845 2.3550 0.0000 -10894.7424 1472.0011 0.0000 0.0000 1767.6965 -7648.3481 299.0068 -9416.0446 -7570.1542 296.2174 -236.0104 -197.3146 30558.1995 291.2579 352.0546
ENERGY: 600000 1.0960 2.9426 4.4592 0.0000 -10834.7688 1552.7899 0.0000 0.0000 1793.6334 -7479.8476 303.3941 -9273.4810 -7552.7133 298.7591 653.6798 726.1272 30980.4542 271.0964 343.0796
ENERGY: 900000 4.0425 2.6737 3.0439 0.0000 -10709.8301 1405.6228 0.0000 0.0000 1747.6169 -7546.8303 295.6104 -9294.4472 -7548.5507 299.2252 -346.9936 -232.0475 30678.9765 276.5179 337.3152
ENERGY: 1200000 2.8122 6.5953 4.0102 0.0000 -10782.5765 1442.4711 0.0000 0.0000 1713.2722 -7613.4156 289.8009 -9326.6878 -7554.3580 298.7029 -570.9240 -471.7166 31193.7838 140.8052 204.8953
ENERGY: 1500000 5.0786 1.6736 2.5693 0.0000 -10665.8796 1433.7375 0.0000 0.0000 1770.3067 -7452.5138 299.4484 -9222.8206 -7544.6166 298.9468 119.2883 219.1809 30816.3790 95.0362 154.8329
TCL: Running FEP window  16: Lambda1 0.24999999999999967 Lambda2 0.19999999999999968 [dLambda -0.04999999999999999]
TCL: Setting parameter firsttimestep to 0
TCL: Setting parameter alchLambda to 0.24999999999999967
Info: NONBONDED TABLE R-SQUARED SPACING: 0.0625
Info: NONBONDED TABLE SIZE: 705 POINTS
TCL: Setting parameter alchLambda2 to 0.19999999999999968
Info: NONBONDED TABLE R-SQUARED SPACING: 0.0625
Info: NONBONDED TABLE SIZE: 705 POINTS
TCL: Running for 1500000 steps
ETITLE: TS BOND ANGLE DIHED IMPRP ELECT VDW BOUNDARY MISC KINETIC TOTAL TEMP POTENTIAL TOTALAVG TEMPAVG PRESSURE GPRESSURE VOLUME PRESSAVG GPRESSAVG
ENERGY: 0 5.0786 1.6736 2.5693 0.0000 -10665.8782 1433.4149 0.0000 0.0000 1769.4259 -7453.7159 299.2994 -9223.1418 -7453.7159 299.2994 125.5145 213.1769 30816.3790 125.5145 213.1769
ENERGY: 300000 0.5216 3.5151 3.1277 0.0000 -10661.2398 1367.4035 0.0000 0.0000 1767.8821 -7518.7897 299.0382 -9286.6718 -7483.8067 301.1766 -750.1012 -730.6539 30983.3360 -429.0280 -357.0919
ENERGY: 600000 2.1623 4.4536 3.9627 0.0000 -10777.9931 1479.7811 0.0000 0.0000 1777.8023 -7509.8310 300.7162 -9287.6333 -7511.1795 301.2379 161.4648 267.6582 30768.3474 -199.3889 -114.8224
ENERGY: 900000 1.2620 5.6548 3.9498 0.0000 -10739.6181 1390.8624 0.0000 0.0000 1801.6752 -7536.2138 304.7543 -9337.8890 -7514.9342 302.5268 -466.2040 -380.7183 30481.7662 -106.8978 -24.5431
ENERGY: 1200000 2.8801 1.5491 3.1242 0.0000 -10714.7946 1423.5570 0.0000 0.0000 1771.0162 -7512.6680 299.5684 -9283.6842 -7519.5724 301.7636 -175.2693 -138.5975 30935.9459 -115.9938 -43.2153
ENERGY: 1500000 1.5234 6.5419 3.4838 0.0000 -10738.2212 1427.5976 0.0000 0.0000 1822.1202 -7476.9544 308.2126 -9299.0746 -7517.0938 301.9871 -77.8753 -5.1030 30269.3895 -124.1787 -43.5942
TCL: Running FEP window  17: Lambda1 0.19999999999999968 Lambda2 0.1499999999999997 [dLambda -0.04999999999999999]
TCL: Setting parameter firsttimestep to 0
TCL: Setting parameter alchLambda to 0.19999999999999968
Info: NONBONDED TABLE R-SQUARED SPACING: 0.0625
Info: NONBONDED TABLE SIZE: 705 POINTS
TCL: Setting parameter alchLambda2 to 0.1499999999999997
Info: NONBONDED TABLE R-SQUARED SPACING: 0.0625
Info: NONBONDED TABLE SIZE: 705 POINTS
TCL: Running for 1500000 steps
ETITLE: TS BOND ANGLE DIHED IMPRP ELECT VDW BOUNDARY MISC KINETIC TOTAL TEMP POTENTIAL TOTALAVG TEMPAVG PRESSURE GPRESSURE VOLUME PRESSAVG GPRESSAVG
ENERGY: 0 1.5234 6.5419 3.4838 0.0000 -10738.2204 1428.0052 0.0000 0.0000 1821.2262 -7477.4400 308.0614 -9298.6662 -7477.4400 308.0614 -103.5650 -5.9182 30269.3895 -103.5650 -5.9182
ENERGY: 300000 2.7889 4.6521 2.8444 0.0000 -10619.0845 1361.9080 0.0000 0.0000 1787.7906 -7459.1006 302.4058 -9246.8912 -7524.8735 301.1330 -784.1566 -706.2401 31081.3445 -329.0784 -253.2411
ENERGY: 600000 3.5236 2.0458 5.7689 0.0000 -10846.0041 1491.7560 0.0000 0.0000 1779.9779 -7562.9319 301.0842 -9342.9098 -7546.7722 300.7361 -49.1642 -0.8943 30820.1016 8.4968 61.3998
ENERGY: 900000 1.4614 3.3460 4.0371 0.0000 -10737.0533 1476.6606 0.0000 0.0000 1764.3447 -7487.2035 298.4399 -9251.5483 -7547.0371 300.7206 32.8884 109.2435 31251.3534 113.8110 173.6688
ENERGY: 1200000 4.3187 2.0285 0.8984 0.0000 -10837.7546 1513.9421 0.0000 0.0000 1740.9782 -7575.5887 294.4874 -9316.5669 -7550.9761 300.5017 678.6608 767.2162 30505.6278 92.9197 150.1373
ENERGY: 1500000 1.0450 2.0861 1.7096 0.0000 -10677.4208 1375.0101 0.0000 0.0000 1785.0021 -7512.5678 301.9341 -9297.5699 -7545.6511 301.0165 -391.5547 -327.4635 30322.0950 69.7683 132.3593
TCL: Running FEP window  18: Lambda1 0.1499999999999997 Lambda2 0.09999999999999969 [dLambda -0.05 ]
TCL: Setting parameter firsttimestep to 0
TCL: Setting parameter alchLambda to 0.1499999999999997
Info: NONBONDED TABLE R-SQUARED SPACING: 0.0625
Info: NONBONDED TABLE SIZE: 705 POINTS
TCL: Setting parameter alchLambda2 to 0.09999999999999969
Info: NONBONDED TABLE R-SQUARED SPACING: 0.0625
Info: NONBONDED TABLE SIZE: 705 POINTS
TCL: Running for 1500000 steps
ETITLE: TS BOND ANGLE DIHED IMPRP ELECT VDW BOUNDARY MISC KINETIC TOTAL TEMP POTENTIAL TOTALAVG TEMPAVG PRESSURE GPRESSURE VOLUME PRESSAVG GPRESSAVG
ENERGY: 0 1.0450 2.0861 1.7096 0.0000 -10677.4226 1375.1566 0.0000 0.0000 1784.1333 -7513.2919 301.7871 -9297.4252 -7513.2919 301.7871 -408.3650 -327.4525 30322.0950 -408.3650 -327.4525
ENERGY: 300000 1.9144 3.2239 3.3318 0.0000 -10738.4567 1383.0293 0.0000 0.0000 1740.1735 -7606.7838 294.3513 -9346.9573 -7597.6513 298.5957 -557.5127 -503.4478 30268.6337 -400.0340 -333.2602
ENERGY: 600000 1.4383 2.9810 1.8627 0.0000 -10639.4594 1354.7938 0.0000 0.0000 1754.4946 -7523.8890 296.7737 -9278.3836 -7570.3033 298.4555 -622.2244 -595.6983 30600.5821 -172.0545 -110.9356
ENERGY: 900000 1.9798 3.2025 3.9589 0.0000 -10753.4431 1407.6057 0.0000 0.0000 1820.4021 -7516.2941 307.9220 -9336.6961 -7551.5006 300.0903 -253.6848 -249.1685 30284.0542 -211.7195 -158.7701
ENERGY: 1200000 2.0224 3.6684 2.0082 0.0000 -10738.6423 1393.2582 0.0000 0.0000 1806.2559 -7531.4292 305.5292 -9337.6851 -7550.1058 300.6011 -751.9986 -713.0983 31087.2511 -224.0832 -171.7584
ENERGY: 1500000 1.8370 3.0815 3.6900 0.0000 -10772.1901 1442.0888 0.0000 0.0000 1759.7794 -7561.7133 297.6677 -9321.4927 -7548.2776 300.4072 -163.7488 -148.2347 30585.4764 -244.7975 -194.3306
TCL: Running FEP window  19: Lambda1 0.09999999999999969 Lambda2 0.049999999999999684 [dLambda -0.05 ]
TCL: Setting parameter firsttimestep to 0
TCL: Setting parameter alchLambda to 0.09999999999999969
Info: NONBONDED TABLE R-SQUARED SPACING: 0.0625
Info: NONBONDED TABLE SIZE: 705 POINTS
TCL: Setting parameter alchLambda2 to 0.049999999999999684
Info: NONBONDED TABLE R-SQUARED SPACING: 0.0625
Info: NONBONDED TABLE SIZE: 705 POINTS
TCL: Running for 1500000 steps
ETITLE: TS BOND ANGLE DIHED IMPRP ELECT VDW BOUNDARY MISC KINETIC TOTAL TEMP POTENTIAL TOTALAVG TEMPAVG PRESSURE GPRESSURE VOLUME PRESSAVG GPRESSAVG
ENERGY: 0 1.8370 3.0815 3.6900 0.0000 -10772.1902 1440.9936 0.0000 0.0000 1758.8990 -7563.6891 297.5187 -9322.5881 -7563.6891 297.5187 -235.9490 -156.0183 30585.4764 -235.9490 -156.0183
ENERGY: 300000 1.9781 3.6833 2.5230 0.0000 -10772.6823 1478.1628 0.0000 0.0000 1778.0323 -7508.3028 300.7551 -9286.3350 -7530.9932 298.9397 354.9681 375.3857 30606.6195 82.2365 147.7581
ENERGY: 600000 3.2526 3.2174 3.7002 0.0000 -10860.6146 1519.2807 0.0000 0.0000 1777.8014 -7553.3622 300.7161 -9331.1637 -7544.5551 298.9191 542.5288 615.7600 30144.2825 29.3857 91.1888
ENERGY: 900000 4.4949 2.9599 3.7267 0.0000 -10827.6743 1403.7963 0.0000 0.0000 1799.3541 -7613.3425 304.3617 -9412.6966 -7533.1242 301.0457 -808.9949 -748.0264 30737.3120 -77.5798 -15.7438
ENERGY: 1200000 3.3289 2.8647 1.4632 0.0000 -10696.9074 1389.1382 0.0000 0.0000 1764.5249 -7535.5876 298.4704 -9300.1124 -7543.4494 300.3174 -554.7187 -487.9022 30546.3102 -134.1204 -71.5974
ENERGY: 1500000 3.0577 4.9274 7.2650 0.0000 -10749.7553 1409.3770 0.0000 0.0000 1748.3622 -7576.7661 295.7364 -9325.1283 -7543.6140 298.7698 -522.2815 -466.2160 30801.8004 -199.9545 -137.9584
TCL: Running FEP window  20: Lambda1 0.049999999999999684 Lambda2 0.0    [dLambda -0.049999999999999684]
TCL: Setting parameter firsttimestep to 0
TCL: Setting parameter alchLambda to 0.049999999999999684
Info: NONBONDED TABLE R-SQUARED SPACING: 0.0625
Info: NONBONDED TABLE SIZE: 705 POINTS
TCL: Setting parameter alchLambda2 to 0.0
Info: NONBONDED TABLE R-SQUARED SPACING: 0.0625
Info: NONBONDED TABLE SIZE: 705 POINTS
TCL: Running for 1500000 steps
ETITLE: TS BOND ANGLE DIHED IMPRP ELECT VDW BOUNDARY MISC KINETIC TOTAL TEMP POTENTIAL TOTALAVG TEMPAVG PRESSURE GPRESSURE VOLUME PRESSAVG GPRESSAVG
ENERGY: 0 3.0577 4.9274 7.2650 0.0000 -10749.7538 1408.8404 0.0000 0.0000 1747.4558 -7578.2076 295.5831 -9325.6634 -7578.2076 295.5831 -550.5392 -472.3746 30801.8004 -550.5392 -472.3746
ENERGY: 300000 4.4932 4.3497 2.4604 0.0000 -10880.6438 1478.7611 0.0000 0.0000 1770.3734 -7620.2060 299.4596 -9390.5794 -7582.6011 299.7007 -151.8057 -112.5155 30596.0272 -223.9082 -169.7524
ENERGY: 600000 3.1283 1.9898 1.4608 0.0000 -10848.8096 1552.4527 0.0000 0.0000 1816.0666 -7473.7114 307.1887 -9289.7780 -7546.0263 301.0687 1055.1265 1030.3763 30288.1811 53.3418 95.1792
ENERGY: 900000 2.6150 2.5265 2.7922 0.0000 -10776.4719 1491.5434 0.0000 0.0000 1771.1909 -7505.8040 299.5979 -9276.9949 -7531.8558 302.9057 220.8777 289.1334 30747.8411 43.3069 90.9062
ENERGY: 1200000 2.8470 2.0649 3.6615 0.0000 -10930.2275 1549.1717 0.0000 0.0000 1767.7218 -7604.7607 299.0111 -9372.4825 -7534.4038 301.7711 559.2499 648.1845 30079.7337 70.9986 125.0143
ENERGY: 1500000 2.3123 5.1049 3.3160 0.0000 -10751.3339 1430.8642 0.0000 0.0000 1785.9751 -7523.7614 302.0987 -9309.7365 -7540.6568 301.6331 -183.9541 -75.6194 30557.0542 -81.3996 -29.4929
TCL: Exiting due to exit command.
