Info: SIMULATION PARAMETERS:
Info: TIMESTEP               2
Info: NUMBER OF STEPS        0
Info: STEPS PER CYCLE        10
Info: PERIODIC CELL BASIS 1  30.9923 0 0
Info: PERIODIC CELL BASIS 2  0 31.88 0
Info: PERIODIC CELL BASIS 3  0 0 30.1483
Info: PERIODIC CELL CENTER   0 0 0
Info: WRAPPING WATERS AROUND PERIODIC BOUNDARIES ON OUTPUT.
Info: WRAPPING ALL CLUSTERS AROUND PERIODIC BOUNDARIES ON OUTPUT.
Info: FIRST LDB TIMESTEP     50
Info: LAST LDB TIMESTEP     -1
Info: HOM BACKGROUND SCALING 1
Info: PME BACKGROUND SCALING 1
Info: MIN ATOMS PER PATCH    40
Info: EMPTY PATCH LOAD       40 ATOMS
Info: VELOCITY FILE          mobley_5732611_equil.vel
Info: CENTER OF MASS MOVING INITIALLY? NO
Info: DIELECTRIC             1
Info: EXCLUDE                SCALED ONE-FOUR
Info: 1-4 ELECTROSTATICS SCALED BY 0.833333
Info: MODIFIED 1-4 VDW PARAMETERS WILL BE USED
Info: DCD FILENAME           mobley_5732611_prod.dcd
Info: DCD FREQUENCY          100000
Info: DCD FIRST STEP         100000
Info: DCD FILE WILL CONTAIN UNIT CELL DATA
Info: XST FILENAME           mobley_5732611_prod.xst
Info: XST FREQUENCY          100000
Info: NO VELOCITY DCD OUTPUT
Info: NO FORCE DCD OUTPUT
Info: OUTPUT FILENAME        mobley_5732611_prod
Info: BINARY OUTPUT FILES WILL BE USED
Info: RESTART FILENAME       mobley_5732611_prod.restart
Info: RESTART FREQUENCY      100000
Info: BINARY RESTART FILES WILL BE USED
Info: CUTOFF                 9
Info: PAIRLIST DISTANCE      11
Info: PAIRLIST SHRINK RATE   0.01
Info: PAIRLIST GROW RATE     0.01
Info: PAIRLIST TRIGGER       0.3
Info: PAIRLISTS PER CYCLE    2
Info: PAIRLISTS ENABLED
Info: MARGIN                 2
Info: HYDROGEN GROUP CUTOFF  2.5
Info: PATCH DIMENSION        15.5
Info: ENERGY OUTPUT STEPS    100000
Info: ENERGY EVALUATION STEPS    100000
Info: OUTPUT ENERGY PRECISION 4
Info: CROSSTERM ENERGY INCLUDED IN DIHEDRAL
Info: TIMING OUTPUT STEPS    1000000
Info: PRESSURE OUTPUT STEPS  100000
Info: ALCHEMICAL FEP ON
Info: FEP CURRENT LAMBDA VALUE     0
Info: FEP COMPARISON LAMBDA VALUE  0.05
Info: FEP INTRA-ALCHEMICAL NON-BONDED INTERACTIONS WILL BE RETAINED
Info: FEP INTRA-ALCHEMICAL BONDED INTERACTIONS WILL BE RETAINED
Info: FEP VDW SHIFTING COEFFICIENT 5
Info: FEP ELEC. ACTIVE FOR ANNIHILATED PARTICLES BETWEEN LAMBDA = 0 AND LAMBDA = 0.5
Info: FEP ELEC. ACTIVE FOR EXNIHILATED PARTICLES BETWEEN LAMBDA = 0.5 AND LAMBDA = 1
Info: FEP VDW ACTIVE FOR ANNIHILATED PARTICLES BETWEEN LAMBDA = 0 AND LAMBDA = 1
Info: FEP VDW ACTIVE FOR EXNIHILATED PARTICLES BETWEEN LAMBDA = 0 AND LAMBDA = 1
Info: FEP BOND ACTIVE FOR ANNIHILATED PARTICLES BETWEEN LAMBDA = 1 AND LAMBDA = 1
Info: FEP BOND ACTIVE FOR EXNIHILATED PARTICLES BETWEEN LAMBDA = 0 AND LAMBDA = 0
Info: LANGEVIN DYNAMICS ACTIVE
Info: LANGEVIN TEMPERATURE   300
Info: LANGEVIN USING BBK INTEGRATOR
Info: LANGEVIN DAMPING COEFFICIENT IS 1 INVERSE PS
Info: LANGEVIN DYNAMICS APPLIED TO HYDROGENS
Info: LANGEVIN PISTON PRESSURE CONTROL ACTIVE
Info:        TARGET PRESSURE IS 1.01325 BAR
Info:     OSCILLATION PERIOD IS 50 FS
Info:             DECAY TIME IS 25 FS
Info:     PISTON TEMPERATURE IS 300 K
Info:       PRESSURE CONTROL IS GROUP-BASED
Info:    INITIAL STRAIN RATE IS -0.000119676 -0.000119676 -0.000119676
Info:       CELL FLUCTUATION IS ISOTROPIC
Info: PARTICLE MESH EWALD (PME) ACTIVE
Info: PME TOLERANCE               1e-06
Info: PME EWALD COEFFICIENT       0.348832
Info: PME INTERPOLATION ORDER     4
Info: PME GRID DIMENSIONS         32 32 32
Info: PME MAXIMUM GRID SPACING    1
Info: PME CALCULATION WILL BE PERFORMED ON GPU
Info: FULL ELECTROSTATIC EVALUATION FREQUENCY      2
Info: USING VERLET I (r-RESPA) MTS SCHEME.
Info: C1 SPLITTING OF LONG RANGE ELECTROSTATICS
Info: PLACING ATOMS IN PATCHES BY HYDROGEN GROUPS
Info: RIGID BONDS TO HYDROGEN : ALL
Info:         ERROR TOLERANCE : 1e-08
Info:          MAX ITERATIONS : 100
Info: RIGID WATER USING SETTLE ALGORITHM
Info: RANDOM NUMBER SEED     1742552279
Info: USE HYDROGEN BONDS?    NO
Info: Using AMBER format force field!
Info: AMBER PARM FILE        mobley_5732611.prmtop
Info: COORDINATE PDB         mobley_5732611.pdb
Info: Exclusions will be read from PARM file!
Info: SCNB (VDW SCALING)     2
Info: USING ARITHMETIC MEAN TO COMBINE L-J SIGMA PARAMETERS
Info: BINARY COORDINATES     mobley_5732611_equil.coor
Info: SUMMARY OF PARAMETERS:
Info: 11 BONDS
Info: 14 ANGLES
Info:   14 HARMONIC
Info:   0 COSINE-BASED
Info: 5 DIHEDRAL
Info: 0 IMPROPER
Info: 0 CROSSTERM
Info: 0 VDW
Info: 55 VDW_PAIRS
Info: 0 NBTHOLE_PAIRS
Info: To read alchdata from file: mobley_5732611.pdb
Info: To read alchflag data from column: 5
Info: STRUCTURE SUMMARY:
Info: 2901 ATOMS
Info: 2901 BONDS
Info: 19 ANGLES
Info: 23 DIHEDRALS
Info: 0 IMPROPERS
Info: 0 CROSSTERMS
Info: 2937 EXCLUSIONS
Info: 2895 RIGID BONDS
Info: ALCH: 0 ATOMS TO DISAPPEAR IN FINAL STATE
Info: ALCH: 12 ATOMS TO APPEAR IN FINAL STATE
Info: 5808 DEGREES OF FREEDOM
Info: 969 HYDROGEN GROUPS
Info: 4 ATOMS IN LARGEST HYDROGEN GROUP
Info: 969 MIGRATION GROUPS
Info: 4 ATOMS IN LARGEST MIGRATION GROUP
Info: TOTAL MASS = 17431.5 amu
Info: TOTAL CHARGE = -0.000100072 e
Info: MASS DENSITY = 0.971761 g/cm^3
Info: ATOM DENSITY = 0.0973896 atoms/A^3
Info: ADDED 0 IMPLICIT EXCLUSIONS
Info: NONBONDED TABLE R-SQUARED SPACING: 0.0625
Info: NONBONDED TABLE SIZE: 705 POINTS
Info: REMOVING COM VELOCITY 0.0370773 -0.105753 -0.109749
Info: Use 3D box decompostion in PME FFT.
Info: Updated CUDA force table with 4096 elements.
Info: Updated CUDA LJ table with 10 x 10 elements.
Info: Found 13 unique exclusion lists needing 24 bytes
TCL: Running for 1500000 steps
ETITLE: TS BOND ANGLE DIHED IMPRP ELECT VDW BOUNDARY MISC KINETIC TOTAL TEMP POTENTIAL TOTALAVG TEMPAVG PRESSURE GPRESSURE VOLUME PRESSAVG GPRESSAVG
ENERGY: 0 2.5143 4.6674 2.6852 0.0000 -10676.0717 1503.6714 0.0000 0.0000 1692.5946 -7469.9389 293.3032 -9162.5335 -7469.9389 293.3032 350.1446 437.7052 29787.5703 350.1446 437.7052
ENERGY: 300000 1.8894 4.9997 0.7280 0.0000 -10637.9582 1419.5912 0.0000 0.0000 1728.2655 -7482.4844 299.4844 -9210.7499 -7392.3424 300.1055 -314.2026 -275.1976 29591.2204 47.9128 103.9846
ENERGY: 600000 0.2917 4.1309 1.2305 0.0000 -10442.4217 1351.9772 0.0000 0.0000 1659.1441 -7425.6472 287.5066 -9084.7913 -7397.2143 296.8772 -542.3214 -546.8624 29837.3816 -152.5328 -100.3625
ENERGY: 900000 1.2874 6.9318 1.0919 0.0000 -10638.0503 1462.9120 0.0000 0.0000 1705.2938 -7460.5334 295.5037 -9165.8272 -7390.5262 298.0814 313.1897 335.7836 29660.4059 -135.1164 -89.5581
ENERGY: 1200000 2.2550 4.1386 1.3937 0.0000 -10447.2752 1353.6086 0.0000 0.0000 1769.9288 -7315.9504 306.7041 -9085.8792 -7382.2441 299.8950 -299.2195 -222.2305 29801.2991 -182.6935 -133.4966
ENERGY: 1500000 3.2850 8.5520 0.6035 0.0000 -10431.5537 1335.8406 0.0000 0.0000 1766.9216 -7316.3510 306.1830 -9083.2725 -7377.6959 300.1409 -531.1644 -435.8441 29652.9631 -191.7494 -138.2549
TCL: Running FEP window   2: Lambda1 0.05   Lambda2 0.1    [dLambda 0.05  ]
TCL: Setting parameter firsttimestep to 0
TCL: Setting parameter alchLambda to 0.05
Info: NONBONDED TABLE R-SQUARED SPACING: 0.0625
Info: NONBONDED TABLE SIZE: 705 POINTS
TCL: Setting parameter alchLambda2 to 0.1
Info: NONBONDED TABLE R-SQUARED SPACING: 0.0625
Info: NONBONDED TABLE SIZE: 705 POINTS
TCL: Running for 1500000 steps
ETITLE: TS BOND ANGLE DIHED IMPRP ELECT VDW BOUNDARY MISC KINETIC TOTAL TEMP POTENTIAL TOTALAVG TEMPAVG PRESSURE GPRESSURE VOLUME PRESSAVG GPRESSAVG
ENERGY: 0 3.2850 8.5520 0.6035 0.0000 -10431.5543 1338.3357 0.0000 0.0000 1766.0538 -7314.7243 306.0326 -9080.7781 -7314.7243 306.0326 -519.5442 -432.4629 29652.9631 -519.5442 -432.4629
ENERGY: 300000 1.0913 5.5174 0.4389 0.0000 -10514.2015 1374.2899 0.0000 0.0000 1697.0996 -7435.7645 294.0838 -9132.8640 -7335.3162 298.6598 -377.6501 -319.4492 29557.2113 -336.6990 -294.4206
ENERGY: 600000 2.1634 4.5536 0.4694 0.0000 -10521.5179 1417.9527 0.0000 0.0000 1706.0611 -7390.3177 295.6367 -9096.3788 -7339.9395 299.0515 -139.8959 -56.3478 30253.6296 -263.4360 -216.9696
ENERGY: 900000 1.1353 9.4538 4.5444 0.0000 -10516.6700 1417.8868 0.0000 0.0000 1728.8989 -7354.7507 299.5942 -9083.6497 -7348.8228 299.5325 447.0899 438.5813 29361.2900 -139.5054 -95.7196
ENERGY: 1200000 1.6436 7.7003 2.3723 0.0000 -10421.8368 1359.1336 0.0000 0.0000 1722.8866 -7328.1003 298.5523 -9050.9870 -7354.1020 300.5692 -420.3544 -424.4275 29886.6439 -118.0351 -72.6773
ENERGY: 1500000 1.4049 6.0027 0.3947 0.0000 -10516.4750 1423.7673 0.0000 0.0000 1771.8683 -7313.0370 307.0402 -9084.9053 -7354.3013 300.8593 -151.3967 -64.3944 30148.2215 -114.2750 -64.4422
TCL: Running FEP window   3: Lambda1 0.1    Lambda2 0.15000000000000002 [dLambda 0.05000000000000002]
TCL: Setting parameter firsttimestep to 0
TCL: Setting parameter alchLambda to 0.1
Info: NONBONDED TABLE R-SQUARED SPACING: 0.0625
Info: NONBONDED TABLE SIZE: 705 POINTS
TCL: Setting parameter alchLambda2 to 0.15000000000000002
Info: NONBONDED TABLE R-SQUARED SPACING: 0.0625
Info: NONBONDED TABLE SIZE: 705 POINTS
TCL: Running for 1500000 steps
ETITLE: TS BOND ANGLE DIHED IMPRP ELECT VDW BOUNDARY MISC KINETIC TOTAL TEMP POTENTIAL TOTALAVG TEMPAVG PRESSURE GPRESSURE VOLUME PRESSAVG GPRESSAVG
ENERGY: 0 1.4049 6.0027 0.3947 0.0000 -10516.4753 1426.1470 0.0000 0.0000 1771.0408 -7311.4852 306.8968 -9082.5260 -7311.4852 306.8968 -138.4961 -55.3261 30148.2215 -138.4961 -55.3261
ENERGY: 300000 1.3699 6.5759 2.1373 0.0000 -10634.6535 1504.8957 0.0000 0.0000 1771.5983 -7348.0765 306.9934 -9119.6747 -7365.8501 301.0984 739.0159 760.1900 29484.5531 55.6055 136.3374
ENERGY: 600000 3.2423 8.7515 2.2767 0.0000 -10680.0158 1490.2400 0.0000 0.0000 1755.4723 -7420.0331 304.1990 -9175.5054 -7376.5683 301.6499 334.6683 428.4356 29645.2876 -53.4805 28.5180
ENERGY: 900000 1.8055 5.0369 2.6619 0.0000 -10510.4435 1427.2591 0.0000 0.0000 1708.7798 -7364.9004 296.1078 -9073.6802 -7392.0389 300.7406 178.7368 183.5361 29821.6727 -18.0137 46.1691
ENERGY: 1200000 1.0224 6.7978 0.8640 0.0000 -10567.9899 1423.3038 0.0000 0.0000 1689.9285 -7446.0734 292.8411 -9136.0018 -7393.1934 299.1515 159.3518 174.7657 29440.9010 -29.7686 30.2915
ENERGY: 1500000 1.5350 9.7581 1.9215 0.0000 -10564.6002 1425.1584 0.0000 0.0000 1689.5396 -7436.6877 292.7738 -9126.2272 -7395.6188 298.5697 124.5229 162.4077 29559.1885 -77.8641 -23.2482
TCL: Running FEP window   4: Lambda1 0.15000000000000002 Lambda2 0.2    [dLambda 0.04999999999999999]
TCL: Setting parameter firsttimestep to 0
TCL: Setting parameter alchLambda to 0.15000000000000002
Info: NONBONDED TABLE R-SQUARED SPACING: 0.0625
Info: NONBONDED TABLE SIZE: 705 POINTS
TCL: Setting parameter alchLambda2 to 0.2
Info: NONBONDED TABLE R-SQUARED SPACING: 0.0625
Info: NONBONDED TABLE SIZE: 705 POINTS
TCL: Running for 1500000 steps
ETITLE: TS BOND ANGLE DIHED IMPRP ELECT VDW BOUNDARY MISC KINETIC TOTAL TEMP POTENTIAL TOTALAVG TEMPAVG PRESSURE GPRESSURE VOLUME PRESSAVG GPRESSAVG
ENERGY: 0 1.5350 9.7581 1.9215 0.0000 -10564.6003 1427.7735 0.0000 0.0000 1688.6912 -7434.9211 292.6267 -9123.6123 -7434.9211 292.6267 95.0771 173.2076 29559.1885 95.0771 173.2076
ENERGY: 300000 1.0810 7.9815 3.8984 0.0000 -10468.2649 1356.1624 0.0000 0.0000 1718.5568 -7380.5848 297.8020 -9099.1416 -7390.4947 294.9936 -282.1292 -240.7229 29493.6558 -17.4116 17.2660
ENERGY: 600000 2.3708 4.7817 0.8389 0.0000 -10467.5935 1383.4693 0.0000 0.0000 1687.7742 -7388.3585 292.4678 -9076.1327 -7383.8480 296.1590 -157.1130 -134.7180 29845.0974 -58.0028 -33.6802
ENERGY: 900000 1.5393 5.9864 1.1965 0.0000 -10491.2392 1342.1327 0.0000 0.0000 1717.7916 -7422.5928 297.6694 -9140.3843 -7391.9292 296.3236 -565.5389 -508.7813 29468.5131 -149.6588 -111.2154
ENERGY: 1200000 0.9145 5.6304 0.5939 0.0000 -10523.4098 1421.0893 0.0000 0.0000 1723.5151 -7371.6666 298.6612 -9095.1817 -7387.4726 296.3495 147.1010 162.9902 29679.6256 -82.5628 -43.2062
ENERGY: 1500000 1.2432 6.1862 0.6517 0.0000 -10468.2431 1399.5597 0.0000 0.0000 1766.9770 -7293.6253 306.1926 -9060.6023 -7380.0914 297.0618 -133.4900 -19.1121 29867.3120 -60.4435 -9.5211
TCL: Running FEP window   5: Lambda1 0.2    Lambda2 0.25   [dLambda 0.04999999999999999]
TCL: Setting parameter firsttimestep to 0
TCL: Setting parameter alchLambda to 0.2
Info: NONBONDED TABLE R-SQUARED SPACING: 0.0625
Info: NONBONDED TABLE SIZE: 705 POINTS
TCL: Setting parameter alchLambda2 to 0.25
Info: NONBONDED TABLE R-SQUARED SPACING: 0.0625
Info: NONBONDED TABLE SIZE: 705 POINTS
TCL: Running for 1500000 steps
ETITLE: TS BOND ANGLE DIHED IMPRP ELECT VDW BOUNDARY MISC KINETIC TOTAL TEMP POTENTIAL TOTALAVG TEMPAVG PRESSURE GPRESSURE VOLUME PRESSAVG GPRESSAVG
ENERGY: 0 1.2432 6.1862 0.6517 0.0000 -10468.2418 1400.2163 0.0000 0.0000 1766.0872 -7293.8573 306.0384 -9059.9445 -7293.8573 306.0384 -99.8787 -12.7590 29867.3120 -99.8787 -12.7590
ENERGY: 300000 2.0775 6.9834 2.4202 0.0000 -10267.6720 1309.4970 0.0000 0.0000 1722.8552 -7223.8387 298.5469 -8946.6939 -7314.7290 303.5112 -398.1354 -286.9392 30005.4841 367.3162 450.4881
ENERGY: 600000 1.0409 5.3840 1.2313 0.0000 -10517.7164 1416.8284 0.0000 0.0000 1717.9661 -7375.2657 297.6997 -9093.2318 -7332.4509 302.7129 191.7636 243.8660 29453.9107 289.2993 373.5197
ENERGY: 900000 0.6338 8.1478 2.9395 0.0000 -10436.8330 1286.3307 0.0000 0.0000 1783.6358 -7355.1454 309.0793 -9138.7812 -7341.8761 303.4369 -1285.4598 -1214.0642 30242.1504 104.8251 179.5280
ENERGY: 1200000 3.3523 4.8943 1.0006 0.0000 -10461.6208 1411.2584 0.0000 0.0000 1725.8994 -7315.2157 299.0744 -9041.1152 -7338.4358 302.5921 -23.9116 -45.6219 29988.6154 78.5457 143.2805
ENERGY: 1500000 1.0411 6.3044 2.2646 0.0000 -10470.3827 1306.5323 0.0000 0.0000 1717.3621 -7436.8782 297.5950 -9154.2403 -7353.0066 302.0627 -1235.6178 -1200.6070 30170.0389 -85.9141 -24.0058
TCL: Running FEP window   6: Lambda1 0.25   Lambda2 0.3    [dLambda 0.04999999999999999]
TCL: Setting parameter firsttimestep to 0
TCL: Setting parameter alchLambda to 0.25
Info: NONBONDED TABLE R-SQUARED SPACING: 0.0625
Info: NONBONDED TABLE SIZE: 705 POINTS
TCL: Setting parameter alchLambda2 to 0.3
Info: NONBONDED TABLE R-SQUARED SPACING: 0.0625
Info: NONBONDED TABLE SIZE: 705 POINTS
TCL: Running for 1500000 steps
ETITLE: TS BOND ANGLE DIHED IMPRP ELECT VDW BOUNDARY MISC KINETIC TOTAL TEMP POTENTIAL TOTALAVG TEMPAVG PRESSURE GPRESSURE VOLUME PRESSAVG GPRESSAVG
ENERGY: 0 1.0411 6.3044 2.2646 0.0000 -10470.3836 1307.5523 0.0000 0.0000 1716.5095 -7436.7117 297.4473 -9153.2213 -7436.7117 297.4473 -1262.3482 -1193.5198 30170.0389 -1262.3482 -1193.5198
ENERGY: 300000 2.7268 5.9624 0.4303 0.0000 -10512.5444 1374.9501 0.0000 0.0000 1717.9098 -7410.5651 297.6899 -9128.4748 -7398.8349 298.7953 -297.4079 -253.9133 29668.6415 -361.3152 -290.2167
ENERGY: 600000 1.3785 6.1927 1.6525 0.0000 -10463.8347 1380.5213 0.0000 0.0000 1753.7658 -7320.3238 303.9033 -9074.0896 -7398.4317 300.2162 -233.6063 -162.1813 29783.7929 -166.8822 -108.5801
ENERGY: 900000 1.8567 5.2875 0.0777 0.0000 -10563.2018 1483.1873 0.0000 0.0000 1722.0680 -7350.7246 298.4105 -9072.7926 -7382.9017 300.5284 372.2271 374.7130 30361.2604 -189.3515 -140.8315
ENERGY: 1200000 1.8939 7.9127 0.1720 0.0000 -10577.9241 1418.1811 0.0000 0.0000 1731.7860 -7417.9784 300.0945 -9149.7644 -7382.5105 300.3304 276.8302 322.9889 29252.1047 -211.0006 -155.6835
ENERGY: 1500000 0.8408 5.6428 2.2133 0.0000 -10589.1565 1483.6954 0.0000 0.0000 1721.1410 -7375.6232 298.2498 -9096.7642 -7391.1838 299.0151 749.5097 836.4753 29352.2204 -110.8252 -56.8843
TCL: Running FEP window   7: Lambda1 0.3    Lambda2 0.35   [dLambda 0.04999999999999999]
TCL: Setting parameter firsttimestep to 0
TCL: Setting parameter alchLambda to 0.3
Info: NONBONDED TABLE R-SQUARED SPACING: 0.0625
Info: NONBONDED TABLE SIZE: 705 POINTS
TCL: Setting parameter alchLambda2 to 0.35
Info: NONBONDED TABLE R-SQUARED SPACING: 0.0625
Info: NONBONDED TABLE SIZE: 705 POINTS
TCL: Running for 1500000 steps
ETITLE: TS BOND ANGLE DIHED IMPRP ELECT VDW BOUNDARY MISC KINETIC TOTAL TEMP POTENTIAL TOTALAVG TEMPAVG PRESSURE GPRESSURE VOLUME PRESSAVG GPRESSAVG
ENERGY: 0 0.8408 5.6428 2.2133 0.0000 -10589.1553 1484.2047 0.0000 0.0000 1720.3265 -7375.9272 298.1087 -9096.2537 -7375.9272 298.1087 762.6554 842.7398 29352.2204 762.6554 842.7398
ENERGY: 300000 1.9973 5.8505 0.4724 0.0000 -10420.9395 1329.7499 0.0000 0.0000 1746.6204 -7336.2490 302.6651 -9082.8694 -7359.2166 303.7207 -535.3387 -426.3547 29828.2668 9.3920 91.5856
ENERGY: 600000 0.3031 8.1820 1.2293 0.0000 -10501.8393 1409.2428 0.0000 0.0000 1766.6105 -7316.2715 306.1291 -9082.8821 -7360.4994 303.2833 -16.4197 55.5731 29627.4024 193.6263 290.5160
ENERGY: 900000 2.3008 6.5188 2.2977 0.0000 -10432.5387 1401.3385 0.0000 0.0000 1743.0359 -7277.0471 302.0439 -9020.0830 -7356.1929 303.6245 -3.3004 60.9027 30025.1741 87.1339 176.6309
ENERGY: 1200000 1.6966 5.8331 5.3131 0.0000 -10487.2226 1404.1416 0.0000 0.0000 1697.9684 -7372.2697 294.2344 -9070.2381 -7357.8358 302.3700 -88.8333 -25.6873 30222.6390 30.5763 118.5261
ENERGY: 1500000 2.5728 8.9654 4.6742 0.0000 -10522.2975 1390.1707 0.0000 0.0000 1730.4062 -7385.5081 299.8554 -9115.9143 -7365.2010 301.8827 -444.7039 -411.6061 30126.6176 -35.2925 45.1749
TCL: Running FEP window   8: Lambda1 0.35   Lambda2 0.39999999999999997 [dLambda 0.04999999999999999]
TCL: Setting parameter firsttimestep to 0
TCL: Setting parameter alchLambda to 0.35
Info: NONBONDED TABLE R-SQUARED SPACING: 0.0625
Info: NONBONDED TABLE SIZE: 705 POINTS
TCL: Setting parameter alchLambda2 to 0.39999999999999997
Info: NONBONDED TABLE R-SQUARED SPACING: 0.0625
Info: NONBONDED TABLE SIZE: 705 POINTS
TCL: Running for 1500000 steps
ETITLE: TS BOND ANGLE DIHED IMPRP ELECT VDW BOUNDARY MISC KINETIC TOTAL TEMP POTENTIAL TOTALAVG TEMPAVG PRESSURE GPRESSURE VOLUME PRESSAVG GPRESSAVG
ENERGY: 0 2.5728 8.9654 4.6742 0.0000 -10522.2975 1389.7414 0.0000 0.0000 1729.5344 -7386.8092 299.7043 -9116.3436 -7386.8092 299.7043 -497.2509 -410.5830 30126.6176 -497.2509 -410.5830
ENERGY: 300000 0.2839 5.0201 3.7053 0.0000 -10626.8577 1444.3106 0.0000 0.0000 1792.3027 -7381.2350 310.5812 -9173.5377 -7410.2977 304.1100 359.6993 458.7172 29211.8504 -129.6093 -48.3501
ENERGY: 600000 2.8708 5.7439 2.4088 0.0000 -10396.3125 1387.7720 0.0000 0.0000 1692.4744 -7305.0426 293.2823 -8997.5170 -7400.2315 298.9330 -83.3647 -11.2507 30132.7677 -186.2564 -103.8345
ENERGY: 900000 1.5944 6.4447 2.1076 0.0000 -10394.6569 1324.1278 0.0000 0.0000 1755.2435 -7305.1389 304.1593 -9060.3824 -7399.1307 298.6972 -768.9626 -696.6717 29996.7692 -178.7195 -103.4042
ENERGY: 1200000 0.6546 5.8545 0.6793 0.0000 -10640.2073 1463.5563 0.0000 0.0000 1688.7882 -7480.6745 292.6435 -9169.4626 -7398.9244 298.1788 243.8669 247.1441 29675.0842 -151.1723 -84.4112
ENERGY: 1500000 2.2832 6.1273 2.4201 0.0000 -10639.2117 1437.9978 0.0000 0.0000 1703.9732 -7486.4101 295.2749 -9190.3832 -7395.0147 298.6148 -252.3988 -103.7777 29725.2693 -215.2936 -136.7387
TCL: Running FEP window   9: Lambda1 0.39999999999999997 Lambda2 0.44999999999999996 [dLambda 0.04999999999999999]
TCL: Setting parameter firsttimestep to 0
TCL: Setting parameter alchLambda to 0.39999999999999997
Info: NONBONDED TABLE R-SQUARED SPACING: 0.0625
Info: NONBONDED TABLE SIZE: 705 POINTS
TCL: Setting parameter alchLambda2 to 0.44999999999999996
Info: NONBONDED TABLE R-SQUARED SPACING: 0.0625
Info: NONBONDED TABLE SIZE: 705 POINTS
TCL: Running for 1500000 steps
ETITLE: TS BOND ANGLE DIHED IMPRP ELECT VDW BOUNDARY MISC KINETIC TOTAL TEMP POTENTIAL TOTALAVG TEMPAVG PRESSURE GPRESSURE VOLUME PRESSAVG GPRESSAVG
ENERGY: 0 2.2832 6.1273 2.4201 0.0000 -10639.2103 1437.8936 0.0000 0.0000 1703.0941 -7487.3920 295.1226 -9190.4861 -7487.3920 295.1226 -180.2969 -101.9776 29725.2693 -180.2969 -101.9776
ENERGY: 300000 0.8198 6.3330 2.4724 0.0000 -10512.6580 1414.4246 0.0000 0.0000 1766.2408 -7322.3674 306.0650 -9088.6082 -7382.9359 302.1641 -51.2435 -65.1414 30292.6144 -76.5677 -30.8014
ENERGY: 600000 3.6296 5.3961 1.1364 0.0000 -10443.7018 1374.0835 0.0000 0.0000 1738.5074 -7320.9488 301.2592 -9059.4562 -7350.3128 300.4294 -483.5221 -348.8273 29963.1166 -137.2451 -79.8827
ENERGY: 900000 2.3927 4.8261 2.8994 0.0000 -10489.3430 1356.9986 0.0000 0.0000 1758.9785 -7363.2476 304.8066 -9122.2261 -7345.9245 300.5439 -550.5515 -529.8931 29791.9759 -101.8755 -55.5292
ENERGY: 1200000 1.5596 5.5866 1.2741 0.0000 -10461.2642 1348.9834 0.0000 0.0000 1701.0717 -7402.7888 294.7721 -9103.8605 -7366.1273 299.2191 -494.2257 -397.9414 29958.7635 -135.7091 -85.4409
ENERGY: 1500000 0.7587 4.6785 2.4673 0.0000 -10503.4569 1332.0351 0.0000 0.0000 1748.9507 -7414.5665 303.0689 -9163.5173 -7369.8533 299.4447 -729.7741 -664.0191 29685.1495 -208.7907 -154.2935
TCL: Running FEP window  10: Lambda1 0.44999999999999996 Lambda2 0.49999999999999994 [dLambda 0.04999999999999999]
TCL: Setting parameter firsttimestep to 0
TCL: Setting parameter alchLambda to 0.44999999999999996
Info: NONBONDED TABLE R-SQUARED SPACING: 0.0625
Info: NONBONDED TABLE SIZE: 705 POINTS
TCL: Setting parameter alchLambda2 to 0.49999999999999994
Info: NONBONDED TABLE R-SQUARED SPACING: 0.0625
Info: NONBONDED TABLE SIZE: 705 POINTS
TCL: Running for 1500000 steps
ETITLE: TS BOND ANGLE DIHED IMPRP ELECT VDW BOUNDARY MISC KINETIC TOTAL TEMP POTENTIAL TOTALAVG TEMPAVG PRESSURE GPRESSURE VOLUME PRESSAVG GPRESSAVG
ENERGY: 0 0.7587 4.6785 2.4673 0.0000 -10503.4566 1331.6780 0.0000 0.0000 1748.0944 -7415.7797 302.9205 -9163.8741 -7415.7797 302.9205 -737.0012 -659.8066 29685.1495 -737.0012 -659.8066
ENERGY: 300000 3.9526 5.6657 1.1361 0.0000 -10495.6816 1392.0545 0.0000 0.0000 1785.4620 -7307.4107 309.3958 -9092.8727 -7348.3319 305.1329 -140.1194 -117.6302 29677.9333 12.5346 84.3470
ENERGY: 600000 2.1130 5.6301 4.8402 0.0000 -10427.4358 1392.8589 0.0000 0.0000 1711.3234 -7310.6702 296.5486 -9021.9936 -7333.3659 303.3018 -274.2518 -199.3710 30274.3891 100.4974 161.7923
ENERGY: 900000 0.6073 5.8323 0.7292 0.0000 -10564.7164 1434.6877 0.0000 0.0000 1772.6150 -7350.2449 307.1696 -9122.8600 -7339.5174 302.7616 12.6643 88.8201 29857.8871 35.8796 92.6812
ENERGY: 1200000 1.4101 4.4205 1.8197 0.0000 -10549.4699 1406.0352 0.0000 0.0000 1761.8389 -7373.9457 305.3022 -9135.7845 -7337.6031 302.9581 -3.2103 60.5743 29604.0104 2.5343 64.7649
ENERGY: 1500000 1.2426 5.5353 0.1948 0.0000 -10463.8442 1377.8652 0.0000 0.0000 1735.7772 -7343.2292 300.7861 -9079.0063 -7345.6737 301.8700 -326.7818 -249.9265 29923.8995 44.4589 109.6418
TCL: Running FEP window  11: Lambda1 0.49999999999999994 Lambda2 0.5499999999999999 [dLambda 0.04999999999999999]
TCL: Setting parameter firsttimestep to 0
TCL: Setting parameter alchLambda to 0.49999999999999994
Info: NONBONDED TABLE R-SQUARED SPACING: 0.0625
Info: NONBONDED TABLE SIZE: 705 POINTS
TCL: Setting parameter alchLambda2 to 0.5499999999999999
Info: NONBONDED TABLE R-SQUARED SPACING: 0.0625
Info: NONBONDED TABLE SIZE: 705 POINTS
TCL: Running for 1500000 steps
ETITLE: TS BOND ANGLE DIHED IMPRP ELECT VDW BOUNDARY MISC KINETIC TOTAL TEMP POTENTIAL TOTALAVG TEMPAVG PRESSURE GPRESSURE VOLUME PRESSAVG GPRESSAVG
ENERGY: 0 1.2426 5.5353 0.1948 0.0000 -10463.8443 1378.1652 0.0000 0.0000 1734.9664 -7343.7400 300.6456 -9078.7064 -7343.7400 300.6456 -334.4662 -240.8219 29923.8995 -334.4662 -240.8219
ENERGY: 300000 1.1624 7.6121 1.4009 0.0000 -10484.1501 1355.3842 0.0000 0.0000 1782.4729 -7336.1177 308.8778 -9118.5906 -7384.3163 301.2011 -636.0424 -571.5798 30003.5058 -449.5199 -364.3139
ENERGY: 600000 0.9283 6.1885 3.2936 0.0000 -10590.7786 1419.2402 0.0000 0.0000 1730.5802 -7430.5478 299.8855 -9161.1280 -7377.4236 302.1270 -103.9461 -91.2403 29695.6690 -421.7454 -345.9836
ENERGY: 900000 0.4871 5.4530 1.9726 0.0000 -10554.5491 1462.9384 0.0000 0.0000 1738.2310 -7345.4670 301.2113 -9083.6980 -7371.1896 301.9628 322.6311 342.1303 30027.8248 -153.8203 -83.0531
ENERGY: 1200000 0.9523 9.2816 0.4981 0.0000 -10534.6720 1388.4987 0.0000 0.0000 1728.2050 -7407.2364 299.4739 -9135.4414 -7366.2598 302.1112 41.0104 61.9390 29361.8940 -86.5679 -22.1830
ENERGY: 1500000 2.9347 7.9488 1.9858 0.0000 -10385.8038 1310.8109 0.0000 0.0000 1722.4989 -7339.6248 298.4852 -9062.1237 -7363.6613 302.1158 -539.0235 -545.7776 29920.6450 -138.8385 -73.4271
TCL: Running FEP window  12: Lambda1 0.5499999999999999 Lambda2 0.6    [dLambda 0.050000000000000044]
TCL: Setting parameter firsttimestep to 0
TCL: Setting parameter alchLambda to 0.5499999999999999
Info: NONBONDED TABLE R-SQUARED SPACING: 0.0625
Info: NONBONDED TABLE SIZE: 705 POINTS
TCL: Setting parameter alchLambda2 to 0.6
Info: NONBONDED TABLE R-SQUARED SPACING: 0.0625
Info: NONBONDED TABLE SIZE: 705 POINTS
TCL: Running for 1500000 steps
ETITLE: TS BOND ANGLE DIHED IMPRP ELECT VDW BOUNDARY MISC KINETIC TOTAL TEMP POTENTIAL TOTALAVG TEMPAVG PRESSURE GPRESSURE VOLUME PRESSAVG GPRESSAVG
ENERGY: 0 2.9347 7.9487 1.9858 0.0000 -10385.8753 1310.7585 0.0000 0.0000 1721.6787 -7340.5688 298.3430 -9062.2475 -7340.5688 298.3430 -610.8194 -543.7153 29920.6450 -610.8194 -543.7153
ENERGY: 300000 2.2986 7.1269 1.0768 0.0000 -10606.5276 1412.4542 0.0000 0.0000 1697.7648 -7485.8063 294.1991 -9183.5711 -7410.0984 298.8356 -48.5394 -1.3154 29433.2129 -291.9438 -250.6065
ENERGY: 600000 1.2685 7.4914 1.5865 0.0000 -10412.8550 1317.1358 0.0000 0.0000 1743.3535 -7342.0192 302.0990 -9085.3728 -7384.5814 300.0351 -803.6894 -758.5307 30180.1576 -358.7721 -305.3037
ENERGY: 900000 1.9138 7.0002 0.2657 0.0000 -10495.8685 1375.6359 0.0000 0.0000 1765.6830 -7345.3700 305.9684 -9111.0530 -7365.3424 301.3793 -350.0892 -325.0428 30046.0107 -442.4029 -392.9487
ENERGY: 1200000 1.8804 7.3013 1.0445 0.0000 -10578.2102 1401.8528 0.0000 0.0000 1743.0741 -7423.0571 302.0506 -9166.1313 -7361.9953 301.7410 -586.6598 -547.9837 30311.8336 -376.7380 -325.5291
ENERGY: 1500000 0.9359 4.9820 0.8753 0.0000 -10450.2557 1362.6099 0.0000 0.0000 1707.3760 -7373.4767 295.8646 -9080.8527 -7366.9111 300.4680 -484.0189 -435.0409 29923.5069 -345.3615 -295.1311
TCL: Running FEP window  13: Lambda1 0.6    Lambda2 0.65   [dLambda 0.050000000000000044]
TCL: Setting parameter firsttimestep to 0
TCL: Setting parameter alchLambda to 0.6
Info: NONBONDED TABLE R-SQUARED SPACING: 0.0625
Info: NONBONDED TABLE SIZE: 705 POINTS
TCL: Setting parameter alchLambda2 to 0.65
Info: NONBONDED TABLE R-SQUARED SPACING: 0.0625
Info: NONBONDED TABLE SIZE: 705 POINTS
TCL: Running for 1500000 steps
ETITLE: TS BOND ANGLE DIHED IMPRP ELECT VDW BOUNDARY MISC KINETIC TOTAL TEMP POTENTIAL TOTALAVG TEMPAVG PRESSURE GPRESSURE VOLUME PRESSAVG GPRESSAVG
ENERGY: 0 0.9359 4.9820 0.8753 0.0000 -10450.5429 1362.9499 0.0000 0.0000 1706.4936 -7374.3063 295.7117 -9080.7999 -7374.3063 295.7117 -529.3476 -429.4968 29923.5069 -529.3476 -429.4968
ENERGY: 300000 1.7160 7.3223 0.3363 0.0000 -10606.3364 1474.9485 0.0000 0.0000 1692.0722 -7429.9411 293.2126 -9122.0134 -7405.6678 295.3370 344.6403 403.2571 30005.2016 233.6277 311.8865
ENERGY: 600000 1.5130 11.2779 0.4048 0.0000 -10497.6478 1372.6214 0.0000 0.0000 1683.0703 -7428.7605 291.6527 -9111.8308 -7392.6793 295.8407 -394.3895 -344.8271 29802.6120 138.6862 209.3984
ENERGY: 900000 2.3340 7.8741 1.7154 0.0000 -10572.3144 1461.1284 0.0000 0.0000 1753.9409 -7345.3216 303.9336 -9099.2625 -7398.8765 297.1106 638.2743 655.0120 29444.2667 109.1592 173.3952
ENERGY: 1200000 2.5260 6.6495 2.2375 0.0000 -10401.2405 1382.0633 0.0000 0.0000 1725.7427 -7282.0216 299.0473 -9007.7643 -7380.2314 298.4126 399.7797 403.6244 29693.1000 97.8704 156.3220
ENERGY: 1500000 2.2895 6.6549 1.1032 0.0000 -10469.9958 1422.0524 0.0000 0.0000 1669.4528 -7368.4429 289.2930 -9037.8957 -7379.7086 298.2646 30.9896 72.8473 30229.0094 146.2750 203.4223
TCL: Running FEP window  14: Lambda1 0.65   Lambda2 0.7000000000000001 [dLambda 0.050000000000000044]
TCL: Setting parameter firsttimestep to 0
TCL: Setting parameter alchLambda to 0.65
Info: NONBONDED TABLE R-SQUARED SPACING: 0.0625
Info: NONBONDED TABLE SIZE: 705 POINTS
TCL: Setting parameter alchLambda2 to 0.7000000000000001
Info: NONBONDED TABLE R-SQUARED SPACING: 0.0625
Info: NONBONDED TABLE SIZE: 705 POINTS
TCL: Running for 1500000 steps
ETITLE: TS BOND ANGLE DIHED IMPRP ELECT VDW BOUNDARY MISC KINETIC TOTAL TEMP POTENTIAL TOTALAVG TEMPAVG PRESSURE GPRESSURE VOLUME PRESSAVG GPRESSAVG
ENERGY: 0 2.2895 6.6549 1.1032 0.0000 -10471.9347 1422.9258 0.0000 0.0000 1668.6107 -7370.3505 289.1471 -9038.9612 -7370.3505 289.1471 -11.6784 84.0994 30229.0094 -11.6784 84.0994
ENERGY: 300000 2.8242 5.0288 1.1488 0.0000 -10488.6678 1405.9252 0.0000 0.0000 1716.4184 -7357.3224 297.4315 -9073.7408 -7353.9555 295.4317 46.9232 49.9875 29736.7440 -251.6603 -216.7961
ENERGY: 600000 2.2156 6.8906 1.4429 0.0000 -10575.5577 1391.9932 0.0000 0.0000 1735.4236 -7437.5918 300.7248 -9173.0154 -7372.8213 297.3653 -350.3740 -299.2352 29923.1364 -274.5577 -239.6957
ENERGY: 900000 1.5257 8.1466 1.7573 0.0000 -10624.9127 1448.2418 0.0000 0.0000 1743.5782 -7421.6631 302.1379 -9165.2413 -7375.2372 298.6541 -130.2057 -9.0518 30126.8448 -228.0808 -178.4994
ENERGY: 1200000 1.1413 9.1821 3.6795 0.0000 -10469.8237 1365.1820 0.0000 0.0000 1737.4705 -7353.1683 301.0795 -9090.6388 -7377.1776 298.3492 -551.6240 -477.7860 30050.6239 -183.5366 -129.9832
ENERGY: 1500000 2.1766 5.9272 1.2170 0.0000 -10494.4658 1339.2675 0.0000 0.0000 1708.5601 -7437.3174 296.0697 -9145.8775 -7376.2900 298.5882 -873.4012 -821.0521 30159.4561 -171.7736 -124.2733
TCL: Running FEP window  15: Lambda1 0.7000000000000001 Lambda2 0.7500000000000001 [dLambda 0.050000000000000044]
TCL: Setting parameter firsttimestep to 0
TCL: Setting parameter alchLambda to 0.7000000000000001
Info: NONBONDED TABLE R-SQUARED SPACING: 0.0625
Info: NONBONDED TABLE SIZE: 705 POINTS
TCL: Setting parameter alchLambda2 to 0.7500000000000001
Info: NONBONDED TABLE R-SQUARED SPACING: 0.0625
Info: NONBONDED TABLE SIZE: 705 POINTS
TCL: Running for 1500000 steps
ETITLE: TS BOND ANGLE DIHED IMPRP ELECT VDW BOUNDARY MISC KINETIC TOTAL TEMP POTENTIAL TOTALAVG TEMPAVG PRESSURE GPRESSURE VOLUME PRESSAVG GPRESSAVG
ENERGY: 0 2.1766 5.9272 1.2170 0.0000 -10495.4834 1338.8637 0.0000 0.0000 1707.6797 -7439.6192 295.9172 -9147.2989 -7439.6192 295.9172 -905.7934 -821.9644 30159.4561 -905.7934 -821.9644
ENERGY: 300000 0.7440 7.3380 1.1753 0.0000 -10559.2978 1410.5125 0.0000 0.0000 1704.8849 -7434.6430 295.4329 -9139.5280 -7414.7032 297.2668 -307.4921 -297.7296 30339.1669 -484.2891 -436.2392
ENERGY: 600000 3.6911 9.2346 2.4354 0.0000 -10419.0021 1305.5899 0.0000 0.0000 1692.2236 -7405.8275 293.2389 -9098.0511 -7397.0235 299.2437 -1059.0253 -1010.4860 30365.7198 -487.1757 -448.3897
ENERGY: 900000 2.0687 5.2975 1.5421 0.0000 -10506.0768 1382.3153 0.0000 0.0000 1759.0323 -7355.8209 304.8159 -9114.8532 -7386.7753 300.5356 -616.5873 -503.7615 30392.0304 -479.9208 -432.2955
ENERGY: 1200000 2.4518 7.8300 1.5608 0.0000 -10563.6151 1452.9126 0.0000 0.0000 1724.9974 -7373.8625 298.9181 -9098.8599 -7382.8632 301.2120 476.1711 475.4772 29686.2797 -404.5115 -356.2611
ENERGY: 1500000 1.3489 5.9776 1.0151 0.0000 -10448.4824 1348.9409 0.0000 0.0000 1732.0085 -7359.1914 300.1330 -9091.1999 -7381.8483 300.9849 -555.4272 -532.7281 30064.8695 -434.6549 -377.6536
TCL: Running FEP window  16: Lambda1 0.7500000000000001 Lambda2 0.8000000000000002 [dLambda 0.050000000000000044]
TCL: Setting parameter firsttimestep to 0
TCL: Setting parameter alchLambda to 0.7500000000000001
Info: NONBONDED TABLE R-SQUARED SPACING: 0.0625
Info: NONBONDED TABLE SIZE: 705 POINTS
TCL: Setting parameter alchLambda2 to 0.8000000000000002
Info: NONBONDED TABLE R-SQUARED SPACING: 0.0625
Info: NONBONDED TABLE SIZE: 705 POINTS
TCL: Running for 1500000 steps
ETITLE: TS BOND ANGLE DIHED IMPRP ELECT VDW BOUNDARY MISC KINETIC TOTAL TEMP POTENTIAL TOTALAVG TEMPAVG PRESSURE GPRESSURE VOLUME PRESSAVG GPRESSAVG
ENERGY: 0 1.3489 5.9776 1.0151 0.0000 -10449.0360 1349.1013 0.0000 0.0000 1731.1651 -7360.4279 299.9869 -9091.5930 -7360.4279 299.9869 -614.9717 -524.6332 30064.8695 -614.9717 -524.6332
ENERGY: 300000 2.5547 8.3891 1.9343 0.0000 -10577.1233 1430.8739 0.0000 0.0000 1727.8172 -7405.5541 299.4067 -9133.3712 -7384.6070 299.1552 17.9218 85.6373 29906.6798 -21.8056 36.7885
ENERGY: 600000 1.7392 3.5317 2.0608 0.0000 -10594.4063 1448.4739 0.0000 0.0000 1765.8816 -7372.7190 306.0028 -9138.6006 -7383.9514 300.5287 62.1579 129.2924 29892.9253 162.6334 220.5206
ENERGY: 900000 0.6524 6.5376 0.6520 0.0000 -10616.2866 1455.3875 0.0000 0.0000 1747.7739 -7405.2831 302.8650 -9153.0570 -7377.7442 302.1856 471.8081 560.7864 29314.7860 200.3327 254.9068
ENERGY: 1200000 1.2285 7.5349 0.7341 0.0000 -10643.8374 1491.1441 0.0000 0.0000 1699.4978 -7443.6980 294.4994 -9143.1958 -7392.7326 300.6176 586.5598 665.5825 29554.8130 199.0366 253.6073
ENERGY: 1500000 1.1745 5.8392 1.1151 0.0000 -10577.8179 1426.3718 0.0000 0.0000 1752.2302 -7391.0871 303.6372 -9143.3173 -7393.3755 300.7929 -61.9405 24.7408 29756.0160 96.1486 147.1697
TCL: Running FEP window  17: Lambda1 0.8000000000000002 Lambda2 0.8500000000000002 [dLambda 0.050000000000000044]
TCL: Setting parameter firsttimestep to 0
TCL: Setting parameter alchLambda to 0.8000000000000002
Info: NONBONDED TABLE R-SQUARED SPACING: 0.0625
Info: NONBONDED TABLE SIZE: 705 POINTS
TCL: Setting parameter alchLambda2 to 0.8500000000000002
Info: NONBONDED TABLE R-SQUARED SPACING: 0.0625
Info: NONBONDED TABLE SIZE: 705 POINTS
TCL: Running for 1500000 steps
ETITLE: TS BOND ANGLE DIHED IMPRP ELECT VDW BOUNDARY MISC KINETIC TOTAL TEMP POTENTIAL TOTALAVG TEMPAVG PRESSURE GPRESSURE VOLUME PRESSAVG GPRESSAVG
ENERGY: 0 1.1745 5.8392 1.1151 0.0000 -10579.3610 1426.7359 0.0000 0.0000 1751.3657 -7393.1306 303.4874 -9144.4963 -7393.1306 303.4874 -39.4828 36.6429 29756.0160 -39.4828 36.6429
ENERGY: 300000 4.1209 6.6689 0.7485 0.0000 -10462.9525 1349.3872 0.0000 0.0000 1743.0792 -7358.9477 302.0514 -9102.0269 -7353.2984 300.9330 -428.8794 -380.2114 29918.1000 -383.8494 -325.0055
ENERGY: 600000 2.1645 7.5555 1.1343 0.0000 -10442.4442 1364.2113 0.0000 0.0000 1708.4908 -7358.8878 296.0577 -9067.3786 -7356.8979 301.0732 -334.6154 -253.5907 30043.1424 -470.0075 -406.6231
ENERGY: 900000 1.3526 5.5095 2.4670 0.0000 -10444.9769 1395.6532 0.0000 0.0000 1773.2757 -7266.7190 307.2841 -9039.9946 -7336.0161 301.9068 139.3777 218.0132 29946.2993 -409.4694 -342.4931
ENERGY: 1200000 1.6520 10.3410 1.9554 0.0000 -10494.9436 1421.8176 0.0000 0.0000 1714.8371 -7344.3404 297.1575 -9059.1775 -7338.8329 301.3939 53.6349 141.9716 29863.1354 -283.4645 -210.9111
ENERGY: 1500000 1.1766 7.5083 1.9444 0.0000 -10421.0011 1430.2520 0.0000 0.0000 1665.7953 -7314.3245 288.6592 -8980.1198 -7346.9257 300.1471 388.0879 436.2351 30063.7148 -247.2921 -172.9972
TCL: Running FEP window  18: Lambda1 0.8500000000000002 Lambda2 0.9000000000000002 [dLambda 0.050000000000000044]
TCL: Setting parameter firsttimestep to 0
TCL: Setting parameter alchLambda to 0.8500000000000002
Info: NONBONDED TABLE R-SQUARED SPACING: 0.0625
Info: NONBONDED TABLE SIZE: 705 POINTS
TCL: Setting parameter alchLambda2 to 0.9000000000000002
Info: NONBONDED TABLE R-SQUARED SPACING: 0.0625
Info: NONBONDED TABLE SIZE: 705 POINTS
TCL: Running for 1500000 steps
ETITLE: TS BOND ANGLE DIHED IMPRP ELECT VDW BOUNDARY MISC KINETIC TOTAL TEMP POTENTIAL TOTALAVG TEMPAVG PRESSURE GPRESSURE VOLUME PRESSAVG GPRESSAVG
ENERGY: 0 1.1766 7.5083 1.9444 0.0000 -10421.3074 1430.5082 0.0000 0.0000 1664.9117 -7315.2581 288.5061 -8980.1699 -7315.2581 288.5061 363.0498 449.1763 30063.7148 363.0498 449.1763
ENERGY: 300000 1.7970 5.7393 4.3449 0.0000 -10668.9017 1469.6787 0.0000 0.0000 1715.2568 -7472.0848 297.2302 -9187.3417 -7360.5458 302.0050 396.9090 548.8564 29319.1167 159.7595 273.1047
ENERGY: 600000 1.8217 5.6631 3.4471 0.0000 -10595.9684 1424.5410 0.0000 0.0000 1684.7933 -7475.7022 291.9513 -9160.4955 -7357.8528 300.0286 55.2624 86.3643 29683.4247 -34.6938 50.2101
ENERGY: 900000 2.3280 6.2590 1.0888 0.0000 -10562.5917 1371.8021 0.0000 0.0000 1726.1937 -7454.9201 299.1254 -9181.1138 -7366.2018 298.8378 -275.5739 -275.6550 29658.8805 -96.1257 -25.7622
ENERGY: 1200000 2.6209 6.6274 0.6439 0.0000 -10454.3969 1332.4083 0.0000 0.0000 1767.2995 -7344.7969 306.2485 -9112.0964 -7365.5183 298.9688 -618.4179 -544.7309 29912.3776 -174.2029 -98.5912
ENERGY: 1500000 1.0689 4.7116 2.9026 0.0000 -10686.5702 1487.0652 0.0000 0.0000 1709.1829 -7481.6390 296.1777 -9190.8219 -7371.0781 299.7602 370.3380 360.7022 29757.5600 -195.9822 -128.5914
TCL: Running FEP window  19: Lambda1 0.9000000000000002 Lambda2 0.9500000000000003 [dLambda 0.050000000000000044]
TCL: Setting parameter firsttimestep to 0
TCL: Setting parameter alchLambda to 0.9000000000000002
Info: NONBONDED TABLE R-SQUARED SPACING: 0.0625
Info: NONBONDED TABLE SIZE: 705 POINTS
TCL: Setting parameter alchLambda2 to 0.9500000000000003
Info: NONBONDED TABLE R-SQUARED SPACING: 0.0625
Info: NONBONDED TABLE SIZE: 705 POINTS
TCL: Running for 1500000 steps
ETITLE: TS BOND ANGLE DIHED IMPRP ELECT VDW BOUNDARY MISC KINETIC TOTAL TEMP POTENTIAL TOTALAVG TEMPAVG PRESSURE GPRESSURE VOLUME PRESSAVG GPRESSAVG
ENERGY: 0 1.0689 4.7116 2.9026 0.0000 -10688.1322 1487.1946 0.0000 0.0000 1708.3004 -7483.9541 296.0247 -9192.2544 -7483.9541 296.0247 289.3126 369.4777 29757.5600 289.3126 369.4777
ENERGY: 300000 0.9678 6.3279 2.0317 0.0000 -10609.6314 1430.6152 0.0000 0.0000 1740.4295 -7429.2594 301.5923 -9169.6889 -7458.0834 295.4088 -152.5764 -63.1213 29955.7844 -5.8215 52.4674
ENERGY: 600000 1.3574 6.8463 3.1223 0.0000 -10539.0958 1408.6408 0.0000 0.0000 1738.7814 -7380.3476 301.3067 -9119.1289 -7436.6110 295.5176 125.5014 127.2597 29728.4799 -124.6888 -68.6715
ENERGY: 900000 1.8912 6.8220 1.0761 0.0000 -10530.4942 1423.4342 0.0000 0.0000 1701.2150 -7396.0558 294.7970 -9097.2708 -7427.3667 296.5216 288.2007 335.4191 29801.6486 -103.2986 -42.9766
ENERGY: 1200000 1.3922 7.5593 3.1499 0.0000 -10491.0735 1400.2796 0.0000 0.0000 1701.6653 -7377.0272 294.8750 -9078.6925 -7420.3667 297.1608 -289.9447 -194.6402 30144.3630 -204.3684 -139.6303
ENERGY: 1500000 3.5666 4.6681 0.7430 0.0000 -10567.1424 1431.9102 0.0000 0.0000 1711.4054 -7414.8491 296.5628 -9126.2545 -7419.9603 297.7105 291.6777 371.9891 29514.1683 -187.5539 -123.8924
TCL: Running FEP window  20: Lambda1 0.9500000000000003 Lambda2 1.0    [dLambda 0.04999999999999971]
TCL: Setting parameter firsttimestep to 0
TCL: Setting parameter alchLambda to 0.9500000000000003
Info: NONBONDED TABLE R-SQUARED SPACING: 0.0625
Info: NONBONDED TABLE SIZE: 705 POINTS
TCL: Setting parameter alchLambda2 to 1.0
Info: NONBONDED TABLE R-SQUARED SPACING: 0.0625
Info: NONBONDED TABLE SIZE: 705 POINTS
TCL: Running for 1500000 steps
ETITLE: TS BOND ANGLE DIHED IMPRP ELECT VDW BOUNDARY MISC KINETIC TOTAL TEMP POTENTIAL TOTALAVG TEMPAVG PRESSURE GPRESSURE VOLUME PRESSAVG GPRESSAVG
ENERGY: 0 3.5666 4.6681 0.7430 0.0000 -10569.1326 1432.2257 0.0000 0.0000 1710.5748 -7417.3544 296.4189 -9127.9292 -7417.3544 296.4189 286.8049 382.7790 29514.1683 286.8049 382.7790
ENERGY: 300000 1.0245 6.0007 3.8435 0.0000 -10500.4861 1403.9170 0.0000 0.0000 1746.5824 -7339.1180 302.6585 -9085.7003 -7373.5127 298.1378 -38.2122 44.7059 29983.5835 148.1945 226.3500
ENERGY: 600000 1.5728 4.7942 1.5484 0.0000 -10599.8475 1369.4597 0.0000 0.0000 1702.9755 -7519.4968 295.1020 -9222.4723 -7405.0152 297.1075 -585.7222 -467.0269 29666.4987 -225.3457 -139.9627
ENERGY: 900000 1.7585 8.7258 2.3164 0.0000 -10573.3010 1438.5140 0.0000 0.0000 1740.3240 -7381.6623 301.5740 -9121.9863 -7396.7803 297.7550 272.8785 325.4933 29813.1208 -207.4817 -126.6195
ENERGY: 1200000 0.5292 5.5783 1.0980 0.0000 -10369.7876 1267.8383 0.0000 0.0000 1763.4677 -7331.2763 305.5845 -9094.7439 -7390.0198 298.4792 -1054.7123 -979.9127 30008.8898 -250.7172 -173.7776
ENERGY: 1500000 1.6790 5.4768 1.1284 0.0000 -10564.3653 1458.1456 0.0000 0.0000 1753.9488 -7343.9867 303.9350 -9097.9355 -7387.1843 298.1526 417.8174 481.2364 29876.5698 -169.2590 -105.3532
TCL: Exiting due to exit command.
