Info: SIMULATION PARAMETERS:
Info: TIMESTEP               2
Info: NUMBER OF STEPS        0
Info: STEPS PER CYCLE        10
Info: PERIODIC CELL BASIS 1  31.7052 0 0
Info: PERIODIC CELL BASIS 2  0 30.0277 0
Info: PERIODIC CELL BASIS 3  0 0 31.876
Info: PERIODIC CELL CENTER   0 0 0
Info: WRAPPING WATERS AROUND PERIODIC BOUNDARIES ON OUTPUT.
Info: WRAPPING ALL CLUSTERS AROUND PERIODIC BOUNDARIES ON OUTPUT.
Info: FIRST LDB TIMESTEP     50
Info: LAST LDB TIMESTEP     -1
Info: HOM BACKGROUND SCALING 1
Info: PME BACKGROUND SCALING 1
Info: MIN ATOMS PER PATCH    40
Info: EMPTY PATCH LOAD       40 ATOMS
Info: VELOCITY FILE          mobley_852937_equil.vel
Info: CENTER OF MASS MOVING INITIALLY? NO
Info: DIELECTRIC             1
Info: EXCLUDE                SCALED ONE-FOUR
Info: 1-4 ELECTROSTATICS SCALED BY 0.833333
Info: MODIFIED 1-4 VDW PARAMETERS WILL BE USED
Info: DCD FILENAME           mobley_852937_prod.dcd
Info: DCD FREQUENCY          100000
Info: DCD FIRST STEP         100000
Info: DCD FILE WILL CONTAIN UNIT CELL DATA
Info: XST FILENAME           mobley_852937_prod.xst
Info: XST FREQUENCY          100000
Info: NO VELOCITY DCD OUTPUT
Info: NO FORCE DCD OUTPUT
Info: OUTPUT FILENAME        mobley_852937_prod
Info: BINARY OUTPUT FILES WILL BE USED
Info: RESTART FILENAME       mobley_852937_prod.restart
Info: RESTART FREQUENCY      100000
Info: BINARY RESTART FILES WILL BE USED
Info: CUTOFF                 9
Info: PAIRLIST DISTANCE      11
Info: PAIRLIST SHRINK RATE   0.01
Info: PAIRLIST GROW RATE     0.01
Info: PAIRLIST TRIGGER       0.3
Info: PAIRLISTS PER CYCLE    2
Info: PAIRLISTS ENABLED
Info: MARGIN                 2
Info: HYDROGEN GROUP CUTOFF  2.5
Info: PATCH DIMENSION        15.5
Info: ENERGY OUTPUT STEPS    100000
Info: ENERGY EVALUATION STEPS    100000
Info: OUTPUT ENERGY PRECISION 4
Info: CROSSTERM ENERGY INCLUDED IN DIHEDRAL
Info: TIMING OUTPUT STEPS    1000000
Info: PRESSURE OUTPUT STEPS  100000
Info: ALCHEMICAL FEP ON
Info: FEP CURRENT LAMBDA VALUE     0
Info: FEP COMPARISON LAMBDA VALUE  0.05
Info: FEP INTRA-ALCHEMICAL NON-BONDED INTERACTIONS WILL BE RETAINED
Info: FEP INTRA-ALCHEMICAL BONDED INTERACTIONS WILL BE RETAINED
Info: FEP VDW SHIFTING COEFFICIENT 5
Info: FEP ELEC. ACTIVE FOR ANNIHILATED PARTICLES BETWEEN LAMBDA = 0 AND LAMBDA = 0.5
Info: FEP ELEC. ACTIVE FOR EXNIHILATED PARTICLES BETWEEN LAMBDA = 0.5 AND LAMBDA = 1
Info: FEP VDW ACTIVE FOR ANNIHILATED PARTICLES BETWEEN LAMBDA = 0 AND LAMBDA = 1
Info: FEP VDW ACTIVE FOR EXNIHILATED PARTICLES BETWEEN LAMBDA = 0 AND LAMBDA = 1
Info: FEP BOND ACTIVE FOR ANNIHILATED PARTICLES BETWEEN LAMBDA = 1 AND LAMBDA = 1
Info: FEP BOND ACTIVE FOR EXNIHILATED PARTICLES BETWEEN LAMBDA = 0 AND LAMBDA = 0
Info: LANGEVIN DYNAMICS ACTIVE
Info: LANGEVIN TEMPERATURE   300
Info: LANGEVIN USING BBK INTEGRATOR
Info: LANGEVIN DAMPING COEFFICIENT IS 1 INVERSE PS
Info: LANGEVIN DYNAMICS APPLIED TO HYDROGENS
Info: LANGEVIN PISTON PRESSURE CONTROL ACTIVE
Info:        TARGET PRESSURE IS 1.01325 BAR
Info:     OSCILLATION PERIOD IS 50 FS
Info:             DECAY TIME IS 25 FS
Info:     PISTON TEMPERATURE IS 300 K
Info:       PRESSURE CONTROL IS GROUP-BASED
Info:    INITIAL STRAIN RATE IS -6.00364e-05 -6.00364e-05 -6.00364e-05
Info:       CELL FLUCTUATION IS ISOTROPIC
Info: PARTICLE MESH EWALD (PME) ACTIVE
Info: PME TOLERANCE               1e-06
Info: PME EWALD COEFFICIENT       0.348832
Info: PME INTERPOLATION ORDER     4
Info: PME GRID DIMENSIONS         32 32 32
Info: PME MAXIMUM GRID SPACING    1
Info: PME CALCULATION WILL BE PERFORMED ON GPU
Info: FULL ELECTROSTATIC EVALUATION FREQUENCY      2
Info: USING VERLET I (r-RESPA) MTS SCHEME.
Info: C1 SPLITTING OF LONG RANGE ELECTROSTATICS
Info: PLACING ATOMS IN PATCHES BY HYDROGEN GROUPS
Info: RIGID BONDS TO HYDROGEN : ALL
Info:         ERROR TOLERANCE : 1e-08
Info:          MAX ITERATIONS : 100
Info: RIGID WATER USING SETTLE ALGORITHM
Info: RANDOM NUMBER SEED     1742596452
Info: USE HYDROGEN BONDS?    NO
Info: Using AMBER format force field!
Info: AMBER PARM FILE        mobley_852937.prmtop
Info: COORDINATE PDB         mobley_852937.pdb
Info: Exclusions will be read from PARM file!
Info: SCNB (VDW SCALING)     2
Info: USING ARITHMETIC MEAN TO COMBINE L-J SIGMA PARAMETERS
Info: BINARY COORDINATES     mobley_852937_equil.coor
Info: SUMMARY OF PARAMETERS:
Info: 7 BONDS
Info: 5 ANGLES
Info:   5 HARMONIC
Info:   0 COSINE-BASED
Info: 3 DIHEDRAL
Info: 0 IMPROPER
Info: 0 CROSSTERM
Info: 0 VDW
Info: 28 VDW_PAIRS
Info: 0 NBTHOLE_PAIRS
Info: To read alchdata from file: mobley_852937.pdb
Info: To read alchflag data from column: 5
Info: STRUCTURE SUMMARY:
Info: 2935 ATOMS
Info: 2935 BONDS
Info: 19 ANGLES
Info: 31 DIHEDRALS
Info: 0 IMPROPERS
Info: 0 CROSSTERMS
Info: 2977 EXCLUSIONS
Info: 2927 RIGID BONDS
Info: ALCH: 0 ATOMS TO DISAPPEAR IN FINAL STATE
Info: ALCH: 13 ATOMS TO APPEAR IN FINAL STATE
Info: 5878 DEGREES OF FREEDOM
Info: 982 HYDROGEN GROUPS
Info: 3 ATOMS IN LARGEST HYDROGEN GROUP
Info: 982 MIGRATION GROUPS
Info: 3 ATOMS IN LARGEST MIGRATION GROUP
Info: TOTAL MASS = 17659.7 amu
Info: TOTAL CHARGE = 0.000199996 e
Info: MASS DENSITY = 0.966332 g/cm^3
Info: ATOM DENSITY = 0.0967147 atoms/A^3
Info: ADDED 0 IMPLICIT EXCLUSIONS
Info: NONBONDED TABLE R-SQUARED SPACING: 0.0625
Info: NONBONDED TABLE SIZE: 705 POINTS
Info: REMOVING COM VELOCITY 0.0263672 -0.115647 0.131543
Info: Use 3D box decompostion in PME FFT.
Info: Updated CUDA force table with 4096 elements.
Info: Updated CUDA LJ table with 7 x 7 elements.
Info: Found 15 unique exclusion lists needing 28 bytes
TCL: Running for 1500000 steps
ETITLE: TS BOND ANGLE DIHED IMPRP ELECT VDW BOUNDARY MISC KINETIC TOTAL TEMP POTENTIAL TOTALAVG TEMPAVG PRESSURE GPRESSURE VOLUME PRESSAVG GPRESSAVG
ENERGY: 0 0.9048 3.1067 3.0678 0.0000 -10673.9957 1447.2209 0.0000 0.0000 1746.8802 -7472.8154 299.1052 -9219.6955 -7472.8154 299.1052 -103.5975 -19.3458 30347.0017 -103.5975 -19.3458
ENERGY: 300000 2.8559 3.7361 2.1386 0.0000 -10569.4732 1340.9943 0.0000 0.0000 1734.6693 -7485.0790 297.0144 -9219.7483 -7492.1049 294.9450 -650.3483 -641.8872 30143.8077 -135.2511 -95.2709
ENERGY: 600000 3.7395 2.9089 3.1471 0.0000 -10748.0938 1479.4057 0.0000 0.0000 1733.7747 -7525.1179 296.8612 -9258.8926 -7480.8918 296.1823 602.1493 615.4891 29516.3264 141.3615 184.4851
ENERGY: 900000 3.4626 2.5269 1.5387 0.0000 -10744.3914 1434.0100 0.0000 0.0000 1772.0872 -7530.7660 303.4212 -9302.8532 -7474.5049 297.9784 -262.3111 -151.7838 29949.4222 99.3083 151.8936
ENERGY: 1200000 1.3869 3.3216 3.1578 0.0000 -10651.2596 1416.9321 0.0000 0.0000 1760.7910 -7465.6702 301.4870 -9226.4612 -7462.4858 298.8674 -152.6182 -140.1849 30243.2828 83.9871 136.7966
ENERGY: 1500000 1.1779 2.1591 2.6967 0.0000 -10689.3679 1417.5045 0.0000 0.0000 1751.4602 -7514.3695 299.8894 -9265.8298 -7466.7002 299.2078 -94.2750 -115.9130 29677.8824 39.1792 87.6843
TCL: Running FEP window   2: Lambda1 0.05   Lambda2 0.1    [dLambda 0.05  ]
TCL: Setting parameter firsttimestep to 0
TCL: Setting parameter alchLambda to 0.05
Info: NONBONDED TABLE R-SQUARED SPACING: 0.0625
Info: NONBONDED TABLE SIZE: 705 POINTS
TCL: Setting parameter alchLambda2 to 0.1
Info: NONBONDED TABLE R-SQUARED SPACING: 0.0625
Info: NONBONDED TABLE SIZE: 705 POINTS
TCL: Running for 1500000 steps
ETITLE: TS BOND ANGLE DIHED IMPRP ELECT VDW BOUNDARY MISC KINETIC TOTAL TEMP POTENTIAL TOTALAVG TEMPAVG PRESSURE GPRESSURE VOLUME PRESSAVG GPRESSAVG
ENERGY: 0 1.1779 2.1591 2.6967 0.0000 -10689.3666 1418.8082 0.0000 0.0000 1750.6104 -7513.9143 299.7439 -9264.5247 -7513.9143 299.7439 -189.4323 -111.3525 29677.8824 -189.4323 -111.3525
ENERGY: 300000 1.4650 1.4877 3.8410 0.0000 -10628.5249 1401.6416 0.0000 0.0000 1736.6564 -7483.4332 297.3546 -9220.0896 -7491.9101 298.7457 -338.1032 -292.7174 30391.4060 -418.2788 -361.9144
ENERGY: 600000 0.4974 2.7470 3.4084 0.0000 -10721.1553 1431.9647 0.0000 0.0000 1739.7965 -7542.7413 297.8923 -9282.5378 -7504.1090 297.5012 -265.2293 -225.5865 30318.0307 -328.6639 -257.4935
ENERGY: 900000 2.1146 4.4118 2.8197 0.0000 -10648.3375 1332.0897 0.0000 0.0000 1827.1059 -7479.7958 312.8416 -9306.9017 -7494.2911 299.4987 -829.6172 -799.3067 29942.2632 -398.5289 -336.2293
ENERGY: 1200000 1.4617 0.9045 2.1090 0.0000 -10640.7218 1405.1874 0.0000 0.0000 1775.2025 -7455.8567 303.9546 -9231.0592 -7477.3505 299.8809 -275.4775 -165.9627 29896.4596 -334.7773 -268.6109
ENERGY: 1500000 4.0870 2.2726 4.1780 0.0000 -10691.5033 1395.8991 0.0000 0.0000 1783.2863 -7501.7804 305.3387 -9285.0667 -7488.1967 299.1264 -464.0710 -358.3274 29689.8295 -254.3826 -197.0320
TCL: Running FEP window   3: Lambda1 0.1    Lambda2 0.15000000000000002 [dLambda 0.05000000000000002]
TCL: Setting parameter firsttimestep to 0
TCL: Setting parameter alchLambda to 0.1
Info: NONBONDED TABLE R-SQUARED SPACING: 0.0625
Info: NONBONDED TABLE SIZE: 705 POINTS
TCL: Setting parameter alchLambda2 to 0.15000000000000002
Info: NONBONDED TABLE R-SQUARED SPACING: 0.0625
Info: NONBONDED TABLE SIZE: 705 POINTS
TCL: Running for 1500000 steps
ETITLE: TS BOND ANGLE DIHED IMPRP ELECT VDW BOUNDARY MISC KINETIC TOTAL TEMP POTENTIAL TOTALAVG TEMPAVG PRESSURE GPRESSURE VOLUME PRESSAVG GPRESSAVG
ENERGY: 0 4.0870 2.2726 4.1780 0.0000 -10691.5051 1396.6590 0.0000 0.0000 1782.3918 -7501.9168 305.1856 -9284.3086 -7501.9168 305.1856 -442.6798 -349.5941 29689.8295 -442.6798 -349.5941
ENERGY: 300000 4.7135 3.9821 6.9154 0.0000 -10652.7676 1424.1831 0.0000 0.0000 1738.6092 -7474.3643 297.6890 -9212.9735 -7456.8825 303.6378 -82.1369 -47.4648 29912.0437 -86.3141 -29.4652
ENERGY: 600000 3.3599 1.7831 1.0838 0.0000 -10591.7896 1451.4364 0.0000 0.0000 1707.8924 -7426.2340 292.4296 -9134.1264 -7449.4046 301.5306 138.1937 278.5899 30411.9296 109.0251 179.6504
ENERGY: 900000 1.0868 4.9793 2.6830 0.0000 -10721.8037 1443.6712 0.0000 0.0000 1735.2722 -7534.1112 297.1176 -9269.3834 -7473.7530 300.1160 -31.2562 57.7412 29952.0945 45.0817 122.7738
ENERGY: 1200000 4.4431 4.7745 3.6867 0.0000 -10782.0430 1512.8675 0.0000 0.0000 1775.9940 -7480.2772 304.0901 -9256.2712 -7463.8787 301.0139 524.7402 633.0059 29824.6005 73.6833 156.5218
ENERGY: 1500000 3.5569 2.6640 2.1458 0.0000 -10651.1194 1456.9997 0.0000 0.0000 1748.6229 -7437.1301 299.4036 -9185.7530 -7465.3206 300.1051 55.2004 187.0024 30540.4707 85.4998 168.0614
TCL: Running FEP window   4: Lambda1 0.15000000000000002 Lambda2 0.2    [dLambda 0.04999999999999999]
TCL: Setting parameter firsttimestep to 0
TCL: Setting parameter alchLambda to 0.15000000000000002
Info: NONBONDED TABLE R-SQUARED SPACING: 0.0625
Info: NONBONDED TABLE SIZE: 705 POINTS
TCL: Setting parameter alchLambda2 to 0.2
Info: NONBONDED TABLE R-SQUARED SPACING: 0.0625
Info: NONBONDED TABLE SIZE: 705 POINTS
TCL: Running for 1500000 steps
ETITLE: TS BOND ANGLE DIHED IMPRP ELECT VDW BOUNDARY MISC KINETIC TOTAL TEMP POTENTIAL TOTALAVG TEMPAVG PRESSURE GPRESSURE VOLUME PRESSAVG GPRESSAVG
ENERGY: 0 3.5569 2.6640 2.1458 0.0000 -10651.1185 1458.0793 0.0000 0.0000 1747.7466 -7436.9259 299.2535 -9184.6725 -7436.9259 299.2535 98.1096 189.7185 30540.4707 98.1096 189.7185
ENERGY: 300000 0.7027 2.4119 3.1149 0.0000 -10648.9414 1436.2821 0.0000 0.0000 1760.5858 -7445.8440 301.4519 -9206.4298 -7458.5336 301.1222 -17.8120 29.1808 30226.1504 -40.2964 28.1690
ENERGY: 600000 1.2722 3.9259 6.7431 0.0000 -10695.4854 1481.3454 0.0000 0.0000 1767.2122 -7434.9867 302.5865 -9202.1989 -7451.5067 301.6955 425.7395 481.7615 30044.5280 74.2982 140.4091
ENERGY: 900000 1.3337 2.9320 1.5088 0.0000 -10475.9540 1311.7419 0.0000 0.0000 1736.8513 -7421.5863 297.3880 -9158.4377 -7463.8201 300.9746 -817.3375 -772.0674 30164.9164 78.2335 131.5712
ENERGY: 1200000 2.7567 2.7013 4.6222 0.0000 -10786.3462 1503.2927 0.0000 0.0000 1774.4406 -7498.5326 303.8241 -9272.9733 -7478.1174 301.0115 224.0539 297.0748 30254.1466 39.8108 101.1162
ENERGY: 1500000 4.8719 1.9145 6.5374 0.0000 -10621.2067 1422.4520 0.0000 0.0000 1737.8474 -7447.5836 297.5586 -9185.4310 -7472.2444 301.4495 -359.0541 -248.8288 30780.4583 21.7288 86.8815
TCL: Running FEP window   5: Lambda1 0.2    Lambda2 0.25   [dLambda 0.04999999999999999]
TCL: Setting parameter firsttimestep to 0
TCL: Setting parameter alchLambda to 0.2
Info: NONBONDED TABLE R-SQUARED SPACING: 0.0625
Info: NONBONDED TABLE SIZE: 705 POINTS
TCL: Setting parameter alchLambda2 to 0.25
Info: NONBONDED TABLE R-SQUARED SPACING: 0.0625
Info: NONBONDED TABLE SIZE: 705 POINTS
TCL: Running for 1500000 steps
ETITLE: TS BOND ANGLE DIHED IMPRP ELECT VDW BOUNDARY MISC KINETIC TOTAL TEMP POTENTIAL TOTALAVG TEMPAVG PRESSURE GPRESSURE VOLUME PRESSAVG GPRESSAVG
ENERGY: 0 4.8719 1.9145 6.5374 0.0000 -10621.2057 1422.9462 0.0000 0.0000 1736.9624 -7447.9734 297.4070 -9184.9359 -7447.9734 297.4070 -340.6991 -244.5201 30780.4583 -340.6991 -244.5201
ENERGY: 300000 1.5808 3.4373 3.1343 0.0000 -10529.4506 1372.2135 0.0000 0.0000 1819.0002 -7330.0845 311.4537 -9149.0847 -7417.8965 304.8963 -590.6935 -479.0048 30800.9912 -371.5287 -286.1558
ENERGY: 600000 3.7423 2.5763 2.9420 0.0000 -10590.1235 1371.4792 0.0000 0.0000 1806.6061 -7402.7776 309.3316 -9209.3837 -7428.5372 302.9735 -208.8579 -220.9033 29853.5964 -154.6478 -83.7526
ENERGY: 900000 5.7288 4.0660 1.9654 0.0000 -10791.6180 1541.9544 0.0000 0.0000 1701.2751 -7536.6284 291.2965 -9237.9035 -7441.0349 301.5733 330.8132 352.6551 30393.8577 -39.9676 24.9777
ENERGY: 1200000 1.1011 1.6799 4.1337 0.0000 -10576.0007 1408.3638 0.0000 0.0000 1760.0075 -7400.7147 301.3529 -9160.7222 -7446.2450 301.1259 -510.0504 -406.4844 30852.5680 -66.9060 -1.4949
ENERGY: 1500000 3.2096 5.8123 2.4617 0.0000 -10777.9689 1514.8812 0.0000 0.0000 1780.2323 -7471.3718 304.8158 -9251.6041 -7443.6509 301.5357 594.6176 634.5091 30181.3167 59.2737 124.1391
TCL: Running FEP window   6: Lambda1 0.25   Lambda2 0.3    [dLambda 0.04999999999999999]
TCL: Setting parameter firsttimestep to 0
TCL: Setting parameter alchLambda to 0.25
Info: NONBONDED TABLE R-SQUARED SPACING: 0.0625
Info: NONBONDED TABLE SIZE: 705 POINTS
TCL: Setting parameter alchLambda2 to 0.3
Info: NONBONDED TABLE R-SQUARED SPACING: 0.0625
Info: NONBONDED TABLE SIZE: 705 POINTS
TCL: Running for 1500000 steps
ETITLE: TS BOND ANGLE DIHED IMPRP ELECT VDW BOUNDARY MISC KINETIC TOTAL TEMP POTENTIAL TOTALAVG TEMPAVG PRESSURE GPRESSURE VOLUME PRESSAVG GPRESSAVG
ENERGY: 0 3.2096 5.8123 2.4617 0.0000 -10777.9698 1516.2159 0.0000 0.0000 1779.3360 -7470.9342 304.6623 -9250.2703 -7470.9342 304.6623 570.4375 644.9783 30181.3167 570.4375 644.9783
ENERGY: 300000 2.9127 4.2743 2.5449 0.0000 -10619.4629 1424.4035 0.0000 0.0000 1816.8540 -7368.4735 311.0863 -9185.3275 -7413.7114 304.4516 -205.3121 -182.7422 30801.2322 118.3319 144.0744
ENERGY: 600000 3.6203 2.3799 3.2827 0.0000 -10609.3446 1440.7524 0.0000 0.0000 1701.5694 -7457.7399 291.3469 -9159.3093 -7443.3966 301.2421 -83.6749 -38.8596 30706.5358 87.9227 121.3869
ENERGY: 900000 3.1792 2.0728 1.2000 0.0000 -10648.2276 1474.5690 0.0000 0.0000 1787.4273 -7379.7793 306.0478 -9167.2066 -7441.4421 301.8992 262.5733 320.1400 30310.7409 58.3692 97.5753
ENERGY: 1200000 0.6024 2.7864 3.4740 0.0000 -10667.5286 1464.8629 0.0000 0.0000 1737.0168 -7458.7861 297.4163 -9195.8030 -7449.6672 301.9050 207.2752 245.6018 30302.5159 114.6459 150.1700
ENERGY: 1500000 3.0238 1.2200 2.1707 0.0000 -10595.3348 1339.5097 0.0000 0.0000 1730.1562 -7519.2544 296.2417 -9249.4106 -7441.6086 302.0549 -901.4032 -831.2149 30292.1354 -39.1386 5.0038
TCL: Running FEP window   7: Lambda1 0.3    Lambda2 0.35   [dLambda 0.04999999999999999]
TCL: Setting parameter firsttimestep to 0
TCL: Setting parameter alchLambda to 0.3
Info: NONBONDED TABLE R-SQUARED SPACING: 0.0625
Info: NONBONDED TABLE SIZE: 705 POINTS
TCL: Setting parameter alchLambda2 to 0.35
Info: NONBONDED TABLE R-SQUARED SPACING: 0.0625
Info: NONBONDED TABLE SIZE: 705 POINTS
TCL: Running for 1500000 steps
ETITLE: TS BOND ANGLE DIHED IMPRP ELECT VDW BOUNDARY MISC KINETIC TOTAL TEMP POTENTIAL TOTALAVG TEMPAVG PRESSURE GPRESSURE VOLUME PRESSAVG GPRESSAVG
ENERGY: 0 3.0238 1.2200 2.1707 0.0000 -10595.3364 1340.0727 0.0000 0.0000 1729.2524 -7519.5969 296.0869 -9248.8493 -7519.5969 296.0869 -893.7071 -822.8564 30292.1354 -893.7071 -822.8564
ENERGY: 300000 2.1577 0.7156 4.0549 0.0000 -10637.9876 1438.7223 0.0000 0.0000 1760.6300 -7431.7072 301.4594 -9192.3371 -7459.3957 298.0043 250.7694 267.9203 29695.6250 28.8239 119.7103
ENERGY: 600000 2.0229 4.3024 2.8897 0.0000 -10766.3074 1507.3710 0.0000 0.0000 1809.8529 -7439.8686 309.8875 -9249.7215 -7439.6315 301.2017 335.8817 364.1866 30425.1602 -97.2182 -19.3545
ENERGY: 900000 2.0608 2.4343 8.5329 0.0000 -10743.6310 1500.4024 0.0000 0.0000 1823.4856 -7406.7149 312.2217 -9230.2005 -7441.9962 300.9009 519.2815 577.8820 30216.9607 -194.5571 -110.9294
ENERGY: 1200000 2.7019 3.8970 1.8599 0.0000 -10723.0014 1425.4210 0.0000 0.0000 1730.0763 -7559.0453 296.2280 -9289.1216 -7454.5049 300.6508 -139.9337 -86.1682 29732.0062 -236.7190 -160.3279
ENERGY: 1500000 2.3391 1.2551 4.6364 0.0000 -10544.5604 1348.7183 0.0000 0.0000 1775.6287 -7411.9828 304.0276 -9187.6116 -7449.5225 301.2812 -701.9311 -639.3252 30082.5432 -299.3857 -225.9331
TCL: Running FEP window   8: Lambda1 0.35   Lambda2 0.39999999999999997 [dLambda 0.04999999999999999]
TCL: Setting parameter firsttimestep to 0
TCL: Setting parameter alchLambda to 0.35
Info: NONBONDED TABLE R-SQUARED SPACING: 0.0625
Info: NONBONDED TABLE SIZE: 705 POINTS
TCL: Setting parameter alchLambda2 to 0.39999999999999997
Info: NONBONDED TABLE R-SQUARED SPACING: 0.0625
Info: NONBONDED TABLE SIZE: 705 POINTS
TCL: Running for 1500000 steps
ETITLE: TS BOND ANGLE DIHED IMPRP ELECT VDW BOUNDARY MISC KINETIC TOTAL TEMP POTENTIAL TOTALAVG TEMPAVG PRESSURE GPRESSURE VOLUME PRESSAVG GPRESSAVG
ENERGY: 0 2.3391 1.2551 4.6364 0.0000 -10544.5608 1348.5573 0.0000 0.0000 1774.8091 -7412.9638 303.8872 -9187.7729 -7412.9638 303.8872 -722.7842 -635.2213 30082.5432 -722.7842 -635.2213
ENERGY: 300000 1.9989 2.7964 5.4791 0.0000 -10574.4437 1402.5771 0.0000 0.0000 1710.1605 -7451.4318 292.8179 -9161.5922 -7455.3718 298.9817 -271.1483 -158.0259 30035.5878 -380.1135 -289.6937
ENERGY: 600000 2.7560 0.7447 4.9223 0.0000 -10576.2890 1413.0302 0.0000 0.0000 1780.5734 -7374.2624 304.8742 -9154.8358 -7451.5118 298.3526 -40.7257 -26.6032 30517.3973 -92.4225 -13.1432
ENERGY: 900000 1.4140 3.9791 3.0865 0.0000 -10614.9562 1422.3654 0.0000 0.0000 1823.9365 -7360.1748 312.2989 -9184.1113 -7443.1913 301.9679 232.6483 264.4099 29807.7475 -34.4144 35.8917
ENERGY: 1200000 1.0289 2.5853 4.6041 0.0000 -10755.7146 1490.5248 0.0000 0.0000 1720.4360 -7536.5355 294.5773 -9256.9715 -7456.5587 301.1752 446.3997 476.4762 29970.2451 -108.5561 -41.3468
ENERGY: 1500000 2.5455 1.4829 3.9053 0.0000 -10791.5103 1522.9262 0.0000 0.0000 1709.7758 -7550.8745 292.7521 -9260.6503 -7461.6914 299.8861 508.0139 572.1934 29901.0255 -67.4302 -1.3920
TCL: Running FEP window   9: Lambda1 0.39999999999999997 Lambda2 0.44999999999999996 [dLambda 0.04999999999999999]
TCL: Setting parameter firsttimestep to 0
TCL: Setting parameter alchLambda to 0.39999999999999997
Info: NONBONDED TABLE R-SQUARED SPACING: 0.0625
Info: NONBONDED TABLE SIZE: 705 POINTS
TCL: Setting parameter alchLambda2 to 0.44999999999999996
Info: NONBONDED TABLE R-SQUARED SPACING: 0.0625
Info: NONBONDED TABLE SIZE: 705 POINTS
TCL: Running for 1500000 steps
ETITLE: TS BOND ANGLE DIHED IMPRP ELECT VDW BOUNDARY MISC KINETIC TOTAL TEMP POTENTIAL TOTALAVG TEMPAVG PRESSURE GPRESSURE VOLUME PRESSAVG GPRESSAVG
ENERGY: 0 2.5455 1.4829 3.9053 0.0000 -10791.5102 1523.2727 0.0000 0.0000 1708.9804 -7551.3233 292.6159 -9260.3037 -7551.3233 292.6159 483.6933 577.6359 29901.0255 483.6933 577.6359
ENERGY: 300000 2.4628 2.1642 5.1064 0.0000 -10647.5119 1380.2265 0.0000 0.0000 1737.7615 -7519.7904 297.5439 -9257.5519 -7541.2804 295.9872 -684.1548 -659.7296 30241.6977 -100.1649 -21.9295
ENERGY: 600000 2.7695 2.8527 2.9265 0.0000 -10667.0659 1446.2212 0.0000 0.0000 1737.7311 -7474.5650 297.5386 -9212.2961 -7507.5480 297.1142 129.1336 170.0352 29904.7131 -76.4431 -3.2336
ENERGY: 900000 1.1845 2.8712 3.4407 0.0000 -10575.7967 1378.2613 0.0000 0.0000 1789.5520 -7400.4871 306.4115 -9190.0391 -7484.8985 298.3771 -459.3852 -425.1210 30403.2502 -119.0981 -50.8094
ENERGY: 1200000 2.9212 4.1432 4.1125 0.0000 -10598.2965 1479.1963 0.0000 0.0000 1794.4246 -7313.4988 307.2458 -9107.9233 -7466.7935 299.5390 202.3824 271.5806 30981.1307 -59.7497 3.9619
ENERGY: 1500000 2.1503 2.0714 1.1222 0.0000 -10576.4491 1329.2116 0.0000 0.0000 1787.0088 -7454.8848 305.9761 -9241.8936 -7460.1556 300.6924 -805.0669 -764.4291 29942.5921 -124.1261 -65.8390
TCL: Running FEP window  10: Lambda1 0.44999999999999996 Lambda2 0.49999999999999994 [dLambda 0.04999999999999999]
TCL: Setting parameter firsttimestep to 0
TCL: Setting parameter alchLambda to 0.44999999999999996
Info: NONBONDED TABLE R-SQUARED SPACING: 0.0625
Info: NONBONDED TABLE SIZE: 705 POINTS
TCL: Setting parameter alchLambda2 to 0.49999999999999994
Info: NONBONDED TABLE R-SQUARED SPACING: 0.0625
Info: NONBONDED TABLE SIZE: 705 POINTS
TCL: Running for 1500000 steps
ETITLE: TS BOND ANGLE DIHED IMPRP ELECT VDW BOUNDARY MISC KINETIC TOTAL TEMP POTENTIAL TOTALAVG TEMPAVG PRESSURE GPRESSURE VOLUME PRESSAVG GPRESSAVG
ENERGY: 0 2.1503 2.0714 1.1222 0.0000 -10576.4479 1330.0086 0.0000 0.0000 1786.1294 -7454.9659 305.8255 -9241.0953 -7454.9659 305.8255 -838.9809 -754.7673 29942.5921 -838.9809 -754.7673
ENERGY: 300000 2.1097 2.0311 3.5525 0.0000 -10774.2684 1519.6783 0.0000 0.0000 1772.9597 -7473.9371 303.5706 -9246.8968 -7426.9491 305.0222 886.4991 975.6951 29521.9567 87.6944 180.8422
ENERGY: 600000 1.8656 2.4510 0.9669 0.0000 -10801.3641 1482.5540 0.0000 0.0000 1704.4416 -7609.0851 291.8387 -9313.5266 -7465.4178 300.9031 137.0901 160.1454 29951.6693 -42.2597 28.9331
ENERGY: 900000 1.1919 8.3935 1.6236 0.0000 -10795.4697 1422.9442 0.0000 0.0000 1764.6753 -7596.6412 302.1521 -9361.3165 -7484.1421 300.4633 -602.7422 -518.4158 29857.7235 -111.7127 -51.7588
ENERGY: 1200000 1.7308 3.6080 0.6344 0.0000 -10639.8434 1446.5273 0.0000 0.0000 1776.2578 -7411.0851 304.1353 -9187.3429 -7469.9097 300.7330 49.3057 71.6505 30630.2047 40.3825 100.1663
ENERGY: 1500000 1.6841 3.1538 2.6111 0.0000 -10677.1399 1436.8219 0.0000 0.0000 1784.4457 -7448.4234 305.5372 -9232.8690 -7463.4355 301.2294 -14.9263 27.7891 30225.9174 2.4300 59.4253
TCL: Running FEP window  11: Lambda1 0.49999999999999994 Lambda2 0.5499999999999999 [dLambda 0.04999999999999999]
TCL: Setting parameter firsttimestep to 0
TCL: Setting parameter alchLambda to 0.49999999999999994
Info: NONBONDED TABLE R-SQUARED SPACING: 0.0625
Info: NONBONDED TABLE SIZE: 705 POINTS
TCL: Setting parameter alchLambda2 to 0.5499999999999999
Info: NONBONDED TABLE R-SQUARED SPACING: 0.0625
Info: NONBONDED TABLE SIZE: 705 POINTS
TCL: Running for 1500000 steps
ETITLE: TS BOND ANGLE DIHED IMPRP ELECT VDW BOUNDARY MISC KINETIC TOTAL TEMP POTENTIAL TOTALAVG TEMPAVG PRESSURE GPRESSURE VOLUME PRESSAVG GPRESSAVG
ENERGY: 0 1.6841 3.1538 2.6111 0.0000 -10677.1400 1437.6466 0.0000 0.0000 1783.5907 -7448.4539 305.3908 -9232.0445 -7448.4539 305.3908 -48.8439 38.3613 30225.9174 -48.8439 38.3613
ENERGY: 300000 2.1966 4.1485 6.4302 0.0000 -10580.8917 1404.0110 0.0000 0.0000 1743.4182 -7420.6871 298.5124 -9164.1053 -7440.6682 304.0479 -252.6108 -193.3605 30501.3717 -97.3970 -1.4385
ENERGY: 600000 2.4170 3.7070 1.1857 0.0000 -10663.8945 1445.0526 0.0000 0.0000 1753.4525 -7458.0798 300.2305 -9211.5323 -7455.5488 302.2697 -20.9023 127.1422 30344.4980 -156.7088 -58.2704
ENERGY: 900000 2.7775 4.1088 1.8604 0.0000 -10595.6260 1444.7476 0.0000 0.0000 1744.1137 -7398.0180 298.6315 -9142.1317 -7460.3738 300.7133 171.8812 251.8910 30065.3471 -31.1501 47.2201
ENERGY: 1200000 1.9874 2.6198 1.5058 0.0000 -10517.3032 1333.6695 0.0000 0.0000 1775.2501 -7402.2707 303.9627 -9177.5208 -7458.6119 300.9254 -634.7060 -555.9872 30209.6724 -127.8161 -44.6250
ENERGY: 1500000 1.1648 2.5218 2.9717 0.0000 -10458.1921 1293.6926 0.0000 0.0000 1741.0544 -7416.7866 298.1077 -9157.8410 -7462.5918 300.3384 -849.7207 -793.8190 30145.7321 -148.2354 -65.7662
TCL: Running FEP window  12: Lambda1 0.5499999999999999 Lambda2 0.6    [dLambda 0.050000000000000044]
TCL: Setting parameter firsttimestep to 0
TCL: Setting parameter alchLambda to 0.5499999999999999
Info: NONBONDED TABLE R-SQUARED SPACING: 0.0625
Info: NONBONDED TABLE SIZE: 705 POINTS
TCL: Setting parameter alchLambda2 to 0.6
Info: NONBONDED TABLE R-SQUARED SPACING: 0.0625
Info: NONBONDED TABLE SIZE: 705 POINTS
TCL: Running for 1500000 steps
ETITLE: TS BOND ANGLE DIHED IMPRP ELECT VDW BOUNDARY MISC KINETIC TOTAL TEMP POTENTIAL TOTALAVG TEMPAVG PRESSURE GPRESSURE VOLUME PRESSAVG GPRESSAVG
ENERGY: 0 1.1648 2.5218 2.9717 0.0000 -10458.7654 1293.9024 0.0000 0.0000 1740.1350 -7418.0696 297.9502 -9158.2046 -7418.0696 297.9502 -860.5224 -788.6353 30145.7321 -860.5224 -788.6353
ENERGY: 300000 3.2867 3.5433 4.6800 0.0000 -10712.1991 1443.4572 0.0000 0.0000 1760.0217 -7497.2103 301.3553 -9257.2320 -7409.2880 301.3703 122.4451 146.6922 29886.2446 -277.8590 -236.7934
ENERGY: 600000 1.9029 3.1070 2.2752 0.0000 -10756.3917 1486.6706 0.0000 0.0000 1788.2290 -7474.2070 306.1850 -9262.4359 -7442.9764 301.1903 287.3679 355.9203 30040.6619 6.0317 43.5640
ENERGY: 900000 1.4145 3.2201 2.8409 0.0000 -10585.3644 1384.5371 0.0000 0.0000 1703.7662 -7489.5856 291.7231 -9193.3518 -7452.5864 299.4419 -296.2574 -292.8212 30174.6408 -14.3260 21.7945
ENERGY: 1200000 2.5498 3.8823 0.6560 0.0000 -10561.6260 1427.9716 0.0000 0.0000 1780.8585 -7345.7078 304.9230 -9126.5663 -7446.2686 299.0204 272.4456 376.4981 30027.6115 -86.3617 -40.5132
ENERGY: 1500000 1.9108 3.2523 3.7961 0.0000 -10543.3065 1419.8628 0.0000 0.0000 1732.4529 -7382.0316 296.6349 -9114.4845 -7437.0162 299.0927 117.0168 204.9112 30359.8981 -138.2933 -87.7400
TCL: Running FEP window  13: Lambda1 0.6    Lambda2 0.65   [dLambda 0.050000000000000044]
TCL: Setting parameter firsttimestep to 0
TCL: Setting parameter alchLambda to 0.6
Info: NONBONDED TABLE R-SQUARED SPACING: 0.0625
Info: NONBONDED TABLE SIZE: 705 POINTS
TCL: Setting parameter alchLambda2 to 0.65
Info: NONBONDED TABLE R-SQUARED SPACING: 0.0625
Info: NONBONDED TABLE SIZE: 705 POINTS
TCL: Running for 1500000 steps
ETITLE: TS BOND ANGLE DIHED IMPRP ELECT VDW BOUNDARY MISC KINETIC TOTAL TEMP POTENTIAL TOTALAVG TEMPAVG PRESSURE GPRESSURE VOLUME PRESSAVG GPRESSAVG
ENERGY: 0 1.9108 3.2523 3.7961 0.0000 -10543.3684 1420.0575 0.0000 0.0000 1731.6018 -7382.7500 296.4892 -9114.3518 -7382.7500 296.4892 146.0722 214.6472 30359.8981 146.0722 214.6472
ENERGY: 300000 2.4925 1.2023 2.1659 0.0000 -10714.7369 1542.7272 0.0000 0.0000 1773.5694 -7392.5796 303.6750 -9166.1490 -7423.9423 301.1043 1002.2917 1101.0886 30265.2086 274.2670 357.8124
ENERGY: 600000 2.2856 2.9660 4.0617 0.0000 -10738.3499 1452.2254 0.0000 0.0000 1749.7195 -7527.0917 299.5913 -9276.8112 -7452.7846 299.8899 -40.7146 56.4872 30083.7751 157.1372 232.9232
ENERGY: 900000 0.8827 2.2051 4.5050 0.0000 -10821.7369 1581.7284 0.0000 0.0000 1712.5752 -7519.8405 293.2314 -9232.4156 -7449.3177 300.3995 1261.8371 1289.9391 29710.8970 344.0417 410.9598
ENERGY: 1200000 1.7748 2.5629 5.6655 0.0000 -10543.3902 1358.9958 0.0000 0.0000 1821.7001 -7352.6910 311.9160 -9174.3911 -7444.7799 300.6225 -371.7522 -312.1324 30358.9664 255.7922 311.3643
ENERGY: 1500000 3.7060 1.8536 5.2298 0.0000 -10591.8258 1422.0247 0.0000 0.0000 1743.3734 -7415.6383 298.5047 -9159.0117 -7440.3575 301.3767 280.0504 352.3740 30028.8761 185.3364 243.1413
TCL: Running FEP window  14: Lambda1 0.65   Lambda2 0.7000000000000001 [dLambda 0.050000000000000044]
TCL: Setting parameter firsttimestep to 0
TCL: Setting parameter alchLambda to 0.65
Info: NONBONDED TABLE R-SQUARED SPACING: 0.0625
Info: NONBONDED TABLE SIZE: 705 POINTS
TCL: Setting parameter alchLambda2 to 0.7000000000000001
Info: NONBONDED TABLE R-SQUARED SPACING: 0.0625
Info: NONBONDED TABLE SIZE: 705 POINTS
TCL: Running for 1500000 steps
ETITLE: TS BOND ANGLE DIHED IMPRP ELECT VDW BOUNDARY MISC KINETIC TOTAL TEMP POTENTIAL TOTALAVG TEMPAVG PRESSURE GPRESSURE VOLUME PRESSAVG GPRESSAVG
ENERGY: 0 3.7060 1.8536 5.2298 0.0000 -10592.1961 1421.7490 0.0000 0.0000 1742.5142 -7417.1436 298.3576 -9159.6578 -7417.1436 298.3576 276.2853 353.2648 30028.8761 276.2853 353.2648
ENERGY: 300000 1.9839 3.6118 3.9276 0.0000 -10773.9091 1466.7926 0.0000 0.0000 1703.3092 -7594.2841 291.6448 -9297.5933 -7484.6998 294.9992 51.0243 160.5962 30159.7461 198.3020 282.9851
ENERGY: 600000 2.1996 4.9273 1.5171 0.0000 -10677.6527 1434.1811 0.0000 0.0000 1796.4911 -7438.3365 307.5997 -9234.8277 -7459.9605 298.9690 -193.2281 -177.4226 30353.8128 85.4012 144.1744
ENERGY: 900000 2.5676 1.9498 1.8075 0.0000 -10584.3138 1367.3359 0.0000 0.0000 1747.5416 -7463.1114 299.2184 -9210.6530 -7452.3247 299.8537 -501.4329 -460.6703 30193.1406 -71.8448 -9.9043
ENERGY: 1200000 4.3642 2.2799 1.9036 0.0000 -10679.9037 1410.6606 0.0000 0.0000 1756.3676 -7504.3279 300.7296 -9260.6956 -7449.2978 300.3148 -262.1510 -220.9304 30135.2173 -50.6884 4.2034
ENERGY: 1500000 2.2761 2.0173 3.6900 0.0000 -10516.9549 1363.6102 0.0000 0.0000 1769.7861 -7375.5752 303.0272 -9145.3613 -7443.7766 300.4074 -112.7980 -96.0520 30037.9977 -67.4422 -8.7431
TCL: Running FEP window  15: Lambda1 0.7000000000000001 Lambda2 0.7500000000000001 [dLambda 0.050000000000000044]
TCL: Setting parameter firsttimestep to 0
TCL: Setting parameter alchLambda to 0.7000000000000001
Info: NONBONDED TABLE R-SQUARED SPACING: 0.0625
Info: NONBONDED TABLE SIZE: 705 POINTS
TCL: Setting parameter alchLambda2 to 0.7500000000000001
Info: NONBONDED TABLE R-SQUARED SPACING: 0.0625
Info: NONBONDED TABLE SIZE: 705 POINTS
TCL: Running for 1500000 steps
ETITLE: TS BOND ANGLE DIHED IMPRP ELECT VDW BOUNDARY MISC KINETIC TOTAL TEMP POTENTIAL TOTALAVG TEMPAVG PRESSURE GPRESSURE VOLUME PRESSAVG GPRESSAVG
ENERGY: 0 2.2761 2.0173 3.6900 0.0000 -10518.1830 1363.4234 0.0000 0.0000 1768.9126 -7377.8636 302.8776 -9146.7762 -7377.8636 302.8776 -185.1136 -94.5722 30037.9977 -185.1136 -94.5722
ENERGY: 300000 0.8072 4.9493 0.8551 0.0000 -10472.7147 1372.7752 0.0000 0.0000 1704.5114 -7388.8165 291.8507 -9093.3279 -7433.7818 299.0960 -482.8424 -397.9730 30712.4833 -351.6294 -284.3175
ENERGY: 600000 3.6387 4.2633 3.0087 0.0000 -10614.7764 1398.1589 0.0000 0.0000 1764.8602 -7440.8465 302.1838 -9205.7067 -7429.0355 299.7366 -54.3711 -46.9664 30258.0043 -188.7482 -131.1393
ENERGY: 900000 3.3834 1.3832 3.3725 0.0000 -10691.2624 1502.8234 0.0000 0.0000 1727.5886 -7452.7113 295.8020 -9180.3000 -7435.4848 299.8808 489.0732 534.1161 30576.0852 -173.6997 -108.0435
ENERGY: 1200000 2.8631 1.3795 4.1760 0.0000 -10719.8847 1459.7639 0.0000 0.0000 1730.0276 -7521.6747 296.2196 -9251.7023 -7449.5221 299.8164 101.1344 146.2576 30200.5912 -145.0006 -78.9763
ENERGY: 1500000 2.2589 2.2973 1.7742 0.0000 -10674.0418 1454.3081 0.0000 0.0000 1759.9576 -7453.4459 301.3443 -9213.4034 -7456.7246 299.4436 38.6292 91.9353 30232.7749 -91.9294 -29.5826
TCL: Running FEP window  16: Lambda1 0.7500000000000001 Lambda2 0.8000000000000002 [dLambda 0.050000000000000044]
TCL: Setting parameter firsttimestep to 0
TCL: Setting parameter alchLambda to 0.7500000000000001
Info: NONBONDED TABLE R-SQUARED SPACING: 0.0625
Info: NONBONDED TABLE SIZE: 705 POINTS
TCL: Setting parameter alchLambda2 to 0.8000000000000002
Info: NONBONDED TABLE R-SQUARED SPACING: 0.0625
Info: NONBONDED TABLE SIZE: 705 POINTS
TCL: Running for 1500000 steps
ETITLE: TS BOND ANGLE DIHED IMPRP ELECT VDW BOUNDARY MISC KINETIC TOTAL TEMP POTENTIAL TOTALAVG TEMPAVG PRESSURE GPRESSURE VOLUME PRESSAVG GPRESSAVG
ENERGY: 0 2.2589 2.2973 1.7742 0.0000 -10674.1086 1453.8892 0.0000 0.0000 1759.0875 -7454.8015 301.1953 -9213.8890 -7454.8015 301.1953 26.1536 98.6333 30232.7749 26.1536 98.6333
ENERGY: 300000 1.0782 3.5216 1.8152 0.0000 -10756.7762 1483.6369 0.0000 0.0000 1765.9179 -7500.8065 302.3649 -9266.7244 -7500.0290 301.4295 480.4946 550.7234 29971.4724 -7.8334 65.8926
ENERGY: 600000 1.6887 3.9991 5.7602 0.0000 -10474.8705 1335.6342 0.0000 0.0000 1762.2619 -7365.5264 301.7389 -9127.7883 -7476.3061 301.3720 -660.3645 -609.5189 30630.8650 -81.5421 -8.5794
ENERGY: 900000 2.3213 2.6855 3.3702 0.0000 -10701.1223 1417.2756 0.0000 0.0000 1753.0140 -7522.4558 300.1554 -9275.4698 -7476.5597 303.0874 -384.8866 -292.2828 30361.7339 -23.6704 50.6933
ENERGY: 1200000 1.2613 2.9739 3.7239 0.0000 -10609.9972 1368.1729 0.0000 0.0000 1742.0122 -7491.8529 298.2717 -9233.8651 -7459.6297 302.1917 -444.0762 -378.0195 30212.9896 -96.9592 -17.7886
ENERGY: 1500000 1.4287 0.5235 3.1512 0.0000 -10607.8441 1458.6104 0.0000 0.0000 1784.2413 -7359.8890 305.5022 -9144.1302 -7455.3368 301.6915 331.8091 392.8709 30512.2234 -93.7719 -9.2638
TCL: Running FEP window  17: Lambda1 0.8000000000000002 Lambda2 0.8500000000000002 [dLambda 0.050000000000000044]
TCL: Setting parameter firsttimestep to 0
TCL: Setting parameter alchLambda to 0.8000000000000002
Info: NONBONDED TABLE R-SQUARED SPACING: 0.0625
Info: NONBONDED TABLE SIZE: 705 POINTS
TCL: Setting parameter alchLambda2 to 0.8500000000000002
Info: NONBONDED TABLE R-SQUARED SPACING: 0.0625
Info: NONBONDED TABLE SIZE: 705 POINTS
TCL: Running for 1500000 steps
ETITLE: TS BOND ANGLE DIHED IMPRP ELECT VDW BOUNDARY MISC KINETIC TOTAL TEMP POTENTIAL TOTALAVG TEMPAVG PRESSURE GPRESSURE VOLUME PRESSAVG GPRESSAVG
ENERGY: 0 1.4287 0.5235 3.1512 0.0000 -10610.1733 1459.2381 0.0000 0.0000 1783.3839 -7362.4480 305.3554 -9145.8319 -7362.4480 305.3554 307.3948 399.3924 30512.2234 307.3948 399.3924
ENERGY: 300000 2.6228 3.8216 2.9930 0.0000 -10626.9976 1441.2422 0.0000 0.0000 1702.1645 -7474.1535 291.4488 -9176.3180 -7417.6007 300.2096 121.5284 145.0861 30292.2767 195.9168 252.6899
ENERGY: 600000 1.7475 5.7183 2.5611 0.0000 -10679.4849 1427.1983 0.0000 0.0000 1780.6973 -7461.5625 304.8954 -9242.2598 -7434.9710 301.0185 -67.3598 -62.9339 30013.2069 137.7882 200.8925
ENERGY: 900000 4.5713 3.8273 0.7415 0.0000 -10639.7420 1458.0047 0.0000 0.0000 1722.1732 -7450.4241 294.8748 -9172.5973 -7420.3421 301.6781 392.1687 506.0244 30180.0631 136.8074 204.7924
ENERGY: 1200000 1.9296 4.9350 3.5129 0.0000 -10610.8451 1468.7055 0.0000 0.0000 1696.6634 -7435.0987 290.5069 -9131.7621 -7429.8711 300.8271 375.3970 412.0637 30488.9542 151.1428 216.8224
ENERGY: 1500000 2.4412 2.3795 3.4708 0.0000 -10749.9981 1471.0586 0.0000 0.0000 1749.3314 -7521.3166 299.5249 -9270.6480 -7443.6149 300.3691 517.6808 566.3281 29677.7795 88.1847 153.1881
TCL: Running FEP window  18: Lambda1 0.8500000000000002 Lambda2 0.9000000000000002 [dLambda 0.050000000000000044]
TCL: Setting parameter firsttimestep to 0
TCL: Setting parameter alchLambda to 0.8500000000000002
Info: NONBONDED TABLE R-SQUARED SPACING: 0.0625
Info: NONBONDED TABLE SIZE: 705 POINTS
TCL: Setting parameter alchLambda2 to 0.9000000000000002
Info: NONBONDED TABLE R-SQUARED SPACING: 0.0625
Info: NONBONDED TABLE SIZE: 705 POINTS
TCL: Running for 1500000 steps
ETITLE: TS BOND ANGLE DIHED IMPRP ELECT VDW BOUNDARY MISC KINETIC TOTAL TEMP POTENTIAL TOTALAVG TEMPAVG PRESSURE GPRESSURE VOLUME PRESSAVG GPRESSAVG
ENERGY: 0 2.4412 2.3795 3.4708 0.0000 -10751.0521 1470.9028 0.0000 0.0000 1748.4913 -7523.3664 299.3810 -9271.8577 -7523.3664 299.3810 487.0145 569.0396 29677.7795 487.0145 569.0396
ENERGY: 300000 3.9990 1.4488 4.4166 0.0000 -10829.9441 1534.0996 0.0000 0.0000 1743.7892 -7542.1910 298.5759 -9285.9802 -7476.9808 303.2537 852.3980 914.0870 29617.6941 347.0766 413.1148
ENERGY: 600000 1.1228 3.9991 2.4515 0.0000 -10566.4156 1375.2845 0.0000 0.0000 1730.9516 -7452.6061 296.3778 -9183.5577 -7476.8175 299.9505 -295.2558 -229.0632 30157.4089 256.4269 312.0183
ENERGY: 900000 2.3218 2.1618 6.1909 0.0000 -10619.1812 1387.4081 0.0000 0.0000 1795.5830 -7425.5154 307.4442 -9221.0985 -7477.2253 299.9861 -311.0050 -218.9155 29972.6541 130.9455 190.5834
ENERGY: 1200000 1.8237 4.4441 2.4806 0.0000 -10722.9589 1506.1967 0.0000 0.0000 1783.9779 -7424.0360 305.4571 -9208.0138 -7474.6630 300.6970 477.4193 580.8587 30504.5410 271.3009 337.3986
ENERGY: 1500000 4.6296 3.5998 7.4748 0.0000 -10639.8176 1370.4011 0.0000 0.0000 1737.5972 -7516.1149 297.5157 -9253.7121 -7475.8585 300.4295 -567.1820 -516.8514 30042.9993 215.1411 272.5307
TCL: Running FEP window  19: Lambda1 0.9000000000000002 Lambda2 0.9500000000000003 [dLambda 0.050000000000000044]
TCL: Setting parameter firsttimestep to 0
TCL: Setting parameter alchLambda to 0.9000000000000002
Info: NONBONDED TABLE R-SQUARED SPACING: 0.0625
Info: NONBONDED TABLE SIZE: 705 POINTS
TCL: Setting parameter alchLambda2 to 0.9500000000000003
Info: NONBONDED TABLE R-SQUARED SPACING: 0.0625
Info: NONBONDED TABLE SIZE: 705 POINTS
TCL: Running for 1500000 steps
ETITLE: TS BOND ANGLE DIHED IMPRP ELECT VDW BOUNDARY MISC KINETIC TOTAL TEMP POTENTIAL TOTALAVG TEMPAVG PRESSURE GPRESSURE VOLUME PRESSAVG GPRESSAVG
ENERGY: 0 4.6296 3.5998 7.4748 0.0000 -10641.7280 1372.7924 0.0000 0.0000 1736.7571 -7516.4742 297.3719 -9253.2313 -7516.4742 297.3719 -570.9237 -481.0506 30042.9993 -570.9237 -481.0506
ENERGY: 300000 0.6106 4.0850 2.2080 0.0000 -10529.3391 1344.7421 0.0000 0.0000 1784.9317 -7392.7617 305.6204 -9177.6934 -7452.0863 300.5376 -745.7254 -680.0089 30977.7961 -412.2548 -372.1052
ENERGY: 600000 2.1941 1.3488 2.4387 0.0000 -10721.5796 1470.2068 0.0000 0.0000 1762.5602 -7482.8311 301.7899 -9245.3912 -7432.1191 301.4961 301.8491 322.1682 30082.6339 -135.9333 -90.6210
ENERGY: 900000 0.9474 2.9076 4.5496 0.0000 -10736.2369 1492.7029 0.0000 0.0000 1777.8685 -7457.2608 304.4111 -9235.1293 -7429.0504 300.5330 520.8100 637.6210 30011.8817 -117.0004 -61.4641
ENERGY: 1200000 1.4008 2.1240 2.5222 0.0000 -10554.8432 1362.2311 0.0000 0.0000 1799.8781 -7386.6870 308.1796 -9186.5651 -7441.1940 300.2396 -573.4167 -531.0966 30374.3934 -307.2223 -254.4391
ENERGY: 1500000 1.8328 5.4896 2.5345 0.0000 -10577.0070 1333.1274 0.0000 0.0000 1728.4565 -7505.5662 295.9506 -9234.0227 -7450.9197 299.5573 -881.3556 -798.3414 30425.1696 -278.9558 -220.2065
TCL: Running FEP window  20: Lambda1 0.9500000000000003 Lambda2 1.0    [dLambda 0.04999999999999971]
TCL: Setting parameter firsttimestep to 0
TCL: Setting parameter alchLambda to 0.9500000000000003
Info: NONBONDED TABLE R-SQUARED SPACING: 0.0625
Info: NONBONDED TABLE SIZE: 705 POINTS
TCL: Setting parameter alchLambda2 to 1.0
Info: NONBONDED TABLE R-SQUARED SPACING: 0.0625
Info: NONBONDED TABLE SIZE: 705 POINTS
TCL: Running for 1500000 steps
ETITLE: TS BOND ANGLE DIHED IMPRP ELECT VDW BOUNDARY MISC KINETIC TOTAL TEMP POTENTIAL TOTALAVG TEMPAVG PRESSURE GPRESSURE VOLUME PRESSAVG GPRESSAVG
ENERGY: 0 1.8328 5.4896 2.5345 0.0000 -10579.0208 1333.5462 0.0000 0.0000 1727.5602 -7508.0575 295.7972 -9235.6177 -7508.0575 295.7972 -874.5099 -790.1786 30425.1696 -874.5099 -790.1786
ENERGY: 300000 2.9730 3.1093 3.7693 0.0000 -10634.3798 1399.3171 0.0000 0.0000 1758.8034 -7466.4077 301.1467 -9225.2111 -7473.4177 300.5215 -145.8954 -135.3586 30040.9957 -138.0461 -72.5886
ENERGY: 600000 2.5747 3.5738 2.7348 0.0000 -10675.3206 1471.3370 0.0000 0.0000 1748.3340 -7446.7663 299.3541 -9195.1003 -7465.0746 301.0110 640.2095 703.3641 30090.2239 28.5986 81.9890
ENERGY: 900000 2.1429 4.1716 3.1978 0.0000 -10832.0490 1501.8622 0.0000 0.0000 1773.8175 -7546.8572 303.7174 -9320.6746 -7468.9015 301.6214 429.8761 541.8593 29720.6932 8.7554 74.1675
ENERGY: 1200000 2.6553 4.0845 3.1767 0.0000 -10734.0640 1503.8026 0.0000 0.0000 1764.9705 -7455.3744 302.2026 -9220.3449 -7462.2509 301.6740 393.0638 413.5386 30619.9074 -5.5209 59.8984
ENERGY: 1500000 2.4557 3.4366 4.9027 0.0000 -10522.5507 1341.0476 0.0000 0.0000 1700.7160 -7469.9921 291.2008 -9170.7081 -7466.3409 300.8301 -732.8847 -703.3829 30272.4046 -66.4298 -1.8580
TCL: Exiting due to exit command.
